No_2874-gen_results/8p0m/2024-11-27-11-27-31/
     RDKit          3D

 17 19  0  0  0  0  0  0  0  0999 V2000
  -28.0162   -0.8135   28.8779 C   0  0  0  0  0  0  0  0  0  0  0  0
  -27.0636   -0.1190   28.6079 C   0  0  0  0  0  0  0  0  0  0  0  0
  -26.9287    1.1713   29.0083 C   0  0  0  0  0  0  0  0  0  0  0  0
  -25.7702    2.0341   28.6884 C   0  0  0  0  0  0  0  0  0  0  0  0
  -24.7141    1.4431   27.9188 C   0  0  0  0  0  0  0  0  0  0  0  0
  -24.8590    0.0783   27.5836 C   0  0  0  0  0  0  0  0  0  0  0  0
  -25.9647   -0.6606   27.9164 C   0  0  0  0  0  0  0  0  0  0  0  0
  -28.6995   -0.6441   30.0766 N   0  0  0  0  0  0  0  0  0  0  0  0
  -29.8035   -1.3645   30.5061 C   0  0  0  0  0  0  0  0  0  0  0  0
  -30.3770   -1.0468   31.7411 C   0  0  0  0  0  0  0  0  0  0  0  0
  -23.5470    2.1764   27.5604 C   0  0  0  0  0  0  0  0  0  0  0  0
  -22.3986    2.2222   27.9623 N   0  0  0  0  0  0  0  0  0  0  0  0
  -23.7679    2.9098   26.2351 C   0  0  0  0  0  0  0  0  0  0  0  0
  -29.9722   -0.2897   32.2854 C   0  0  0  0  0  0  0  0  0  0  0  0
  -28.8352    0.5887   32.1504 C   0  0  0  0  0  0  0  0  0  0  0  0
  -28.1938    0.3448   30.9467 C   0  0  0  0  0  0  0  0  0  0  0  0
  -27.3047    1.2180   30.4175 N   0  0  0  0  0  0  0  0  0  0  0  0
  1  2  1  0
  1  8  1  0
  8  9  1  0
  5 11  1  0
 11 12  2  0
 11 13  1  0
 10 14  1  0
  8 16  1  0
 15 16  1  0
  3 17  1  0
 16 17  1  0
  9 10  1  0
 14 15  1  0
  2  7  2  0
  7  6  1  0
  6  5  2  0
  5  4  1  0
  4  3  2  0
  3  2  1  0
M  END

$$$$
