No_2186-gen_results/8p0m/2024-11-27-11-27-31/
     RDKit          3D

 12 11  0  0  0  0  0  0  0  0999 V2000
  -28.1229   -1.3353   28.4874 O   0  0  0  0  0  0  0  0  0  0  0  0
  -27.4806   -0.4044   28.7094 C   0  0  0  0  0  0  0  0  0  0  0  0
  -26.3804   -0.0867   27.9394 C   0  0  0  0  0  0  0  0  0  0  0  0
  -27.6664    0.4468   29.8988 N   0  0  0  0  0  0  0  0  0  0  0  0
  -26.4086    0.8567   26.8802 C   0  0  0  0  0  0  0  0  0  0  0  0
  -25.0824   -0.6970   28.1699 C   0  0  0  0  0  0  0  0  0  0  0  0
  -27.5472    1.4839   26.5458 C   0  0  0  0  0  0  0  0  0  0  0  0
  -28.7267    0.1025   30.7787 C   0  0  0  0  0  0  0  0  0  0  0  0
  -25.2101    1.0622   26.0395 C   0  0  0  0  0  0  0  0  0  0  0  0
  -24.2450    1.9477   26.4671 C   0  0  0  0  0  0  0  0  0  0  0  0
  -24.4903    2.8543   27.4430 C   0  0  0  0  0  0  0  0  0  0  0  0
  -22.8895    1.8291   25.9076 C   0  0  0  0  0  0  0  0  0  0  0  0
  1  2  2  0
  2  3  1  0
  2  4  1  0
  3  5  1  0
  3  6  1  0
  5  7  1  0
  4  8  1  0
  5  9  1  0
  9 10  1  0
 10 11  1  0
 10 12  1  0
M  END

$$$$
