No_2816-gen_results/8p0m/2024-11-27-11-27-31/
     RDKit          3D

 14 15  0  0  0  0  0  0  0  0999 V2000
  -28.0162   -0.8135   28.8779 C   0  0  0  0  0  0  0  0  0  0  0  0
  -28.4690   -0.7850   29.8287 C   0  0  0  0  0  0  0  0  0  0  0  0
  -26.5042   -0.7777   28.8766 C   0  0  0  0  0  0  0  0  0  0  0  0
  -25.8103   -0.8531   30.1028 C   0  0  0  0  0  0  0  0  0  0  0  0
  -27.9906   -0.8916   31.2257 C   0  0  0  0  0  0  0  0  0  0  0  0
  -24.3976   -0.8364   30.1775 C   0  0  0  0  0  0  0  0  0  0  0  0
  -26.5754   -0.8899   31.2661 C   0  0  0  0  0  0  0  0  0  0  0  0
  -23.6362   -0.9045   29.1560 C   0  0  0  0  0  0  0  0  0  0  0  0
  -22.1750   -0.7187   29.2226 C   0  0  0  0  0  0  0  0  0  0  0  0
  -23.9951   -1.5757   31.4340 C   0  0  0  0  0  0  0  0  0  0  0  0
  -22.4954   -1.1033   31.7307 C   0  0  0  0  0  0  0  0  0  0  0  0
  -21.6802   -0.9089   30.5674 C   0  0  0  0  0  0  0  0  0  0  0  0
  -30.3141   -0.7348   29.8176 Cl  0  0  0  0  0  0  0  0  0  0  0  0
  -25.6161   -0.7632   27.4195 Cl  0  0  0  0  0  0  0  0  0  0  0  0
  4  6  1  0
  2 13  1  0
  3 14  1  0
  6  8  2  0
  8  9  1  0
  9 12  2  0
 12 11  1  0
 11 10  2  0
 10  6  1  0
  1  2  2  0
  2  5  1  0
  5  7  2  0
  7  4  1  0
  4  3  2  0
  3  1  1  0
M  END

$$$$
