No_2232-gen_results/8p0m/2024-11-27-11-27-31/
     RDKit          3D

 35 37  0  0  0  0  0  0  0  0999 V2000
  -28.0162   -0.8135   28.8779 C   0  0  0  0  0  0  0  0  0  0  0  0
  -28.4690   -0.7850   29.8287 C   0  0  0  0  0  0  0  0  0  0  0  0
  -27.1356    0.2359   28.5352 C   0  0  0  0  0  0  0  0  0  0  0  0
  -26.8050    1.0509   29.2763 C   0  0  0  0  0  0  0  0  0  0  0  0
  -28.2372    0.1503   30.9300 C   0  0  0  0  0  0  0  0  0  0  0  0
  -27.3522    1.1239   30.6071 C   0  0  0  0  0  0  0  0  0  0  0  0
  -26.4705    0.1962   27.1308 C   0  0  0  0  0  0  0  0  0  0  0  0
  -25.0393    0.1871   27.1090 C   0  0  0  0  0  0  0  0  0  0  0  0
  -27.1793    0.3412   25.9392 C   0  0  0  0  0  0  0  0  0  0  0  0
  -28.5297    0.4415   25.9272 C   0  0  0  0  0  0  0  0  0  0  0  0
  -29.1225    0.4562   24.6435 C   0  0  0  0  0  0  0  0  0  0  0  0
  -30.5290    0.5163   24.5369 C   0  0  0  0  0  0  0  0  0  0  0  0
  -31.2879    0.4527   25.6645 C   0  0  0  0  0  0  0  0  0  0  0  0
  -30.6851    0.4068   26.9349 C   0  0  0  0  0  0  0  0  0  0  0  0
  -29.3697    0.4254   27.0823 C   0  0  0  0  0  0  0  0  0  0  0  0
  -26.4182    0.3111   24.7565 C   0  0  0  0  0  0  0  0  0  0  0  0
  -24.3553    1.1917   27.7980 C   0  0  0  0  0  0  0  0  0  0  0  0
  -23.9893    0.8541   29.0657 C   0  0  0  0  0  0  0  0  0  0  0  0
  -23.0166   -0.1788   29.2947 C   0  0  0  0  0  0  0  0  0  0  0  0
  -21.7543    0.0517   28.8495 C   0  0  0  0  0  0  0  0  0  0  0  0
  -23.4217   -1.3410   30.0399 C   0  0  0  0  0  0  0  0  0  0  0  0
  -20.8470   -0.3781   28.7089 N   0  0  0  0  0  0  0  0  0  0  0  0
  -21.6389    1.7453   28.0046 Cl  0  0  0  0  0  0  0  0  0  0  0  0
  -31.6558    0.4575   28.1127 C   0  0  0  0  0  0  0  0  0  0  0  0
  -31.6791    1.5989   28.8663 C   0  0  0  0  0  0  0  0  0  0  0  0
  -31.2591    2.7440   28.5405 C   0  0  0  0  0  0  0  0  0  0  0  0
  -31.2955    3.9122   29.4286 C   0  0  0  0  0  0  0  0  0  0  0  0
  -31.8766    3.7079   30.6626 C   0  0  0  0  0  0  0  0  0  0  0  0
  -32.2968    1.4563   30.2325 C   0  0  0  0  0  0  0  0  0  0  0  0
  -32.3890    2.5374   31.0781 C   0  0  0  0  0  0  0  0  0  0  0  0
  -32.9625   -0.2289   27.7531 C   0  0  0  0  0  0  0  0  0  0  0  0
  -32.9781   -1.3902   27.5488 C   0  0  0  0  0  0  0  0  0  0  0  0
  -34.1808   -2.1762   27.4133 C   0  0  0  0  0  0  0  0  0  0  0  0
  -35.3647   -1.4625   27.5723 C   0  0  0  0  0  0  0  0  0  0  0  0
  -34.2831    0.3414   28.0342 C   0  0  0  0  0  0  0  0  0  0  0  0
  3  7  1  0
  7  8  1  0
  7  9  1  0
  9 10  1  0
  9 16  1  0
  8 17  2  3
 17 18  1  0
 18 19  1  0
 19 20  2  3
 19 21  1  0
 20 22  1  0
 20 23  1  0
 14 24  1  0
 24 25  1  0
 24 31  1  0
 31 32  2  3
 32 33  1  0
 33 34  2  0
 31 35  1  0
 25 26  2  0
 26 27  1  0
 27 28  2  0
 28 30  1  0
 30 29  2  0
 29 25  1  0
  1  2  2  0
  2  5  1  0
  5  6  2  0
  6  4  1  0
  4  3  2  0
  3  1  1  0
 10 11  2  0
 11 12  1  0
 12 13  2  0
 13 14  1  0
 14 15  2  0
 15 10  1  0
M  END

$$$$
