No_2485-gen_results/8p0m/2024-11-27-11-27-31/
     RDKit          3D

 22 25  0  0  0  0  0  0  0  0999 V2000
  -28.0162   -0.8135   28.8779 C   0  0  0  0  0  0  0  0  0  0  0  0
  -27.0636   -0.1189   28.6079 C   0  0  0  0  0  0  0  0  0  0  0  0
  -27.0010    0.6913   27.4910 C   0  0  0  0  0  0  0  0  0  0  0  0
  -25.8548    1.4825   27.0830 C   0  0  0  0  0  0  0  0  0  0  0  0
  -24.6901    1.4526   27.8807 C   0  0  0  0  0  0  0  0  0  0  0  0
  -24.7379    0.6010   29.0416 C   0  0  0  0  0  0  0  0  0  0  0  0
  -25.8234   -0.1688   29.3887 C   0  0  0  0  0  0  0  0  0  0  0  0
  -28.0352   -1.4960   30.2343 C   0  0  0  0  0  0  0  0  0  0  0  0
  -29.1820   -2.2686   30.5872 C   0  0  0  0  0  0  0  0  0  0  0  0
  -29.0183   -3.5605   30.9253 C   0  0  0  0  0  0  0  0  0  0  0  0
  -27.8150   -4.2244   30.5543 C   0  0  0  0  0  0  0  0  0  0  0  0
  -26.6813   -3.4682   30.2250 C   0  0  0  0  0  0  0  0  0  0  0  0
  -26.8081   -2.1072   29.9137 C   0  0  0  0  0  0  0  0  0  0  0  0
  -25.6878   -1.5126   29.5676 C   0  0  0  0  0  0  0  0  0  0  0  0
  -27.7823   -0.4514   31.4107 C   0  0  0  0  0  0  0  0  0  0  0  0
  -23.4664    0.5911   29.8620 C   0  0  0  0  0  0  0  0  0  0  0  0
  -22.2616    0.7341   29.3651 N   0  0  0  0  0  0  0  0  0  0  0  0
  -23.6853    0.9480   31.1487 O   0  0  0  0  0  0  0  0  0  0  0  0
  -30.4791   -1.6777   30.7919 C   0  0  0  0  0  0  0  0  0  0  0  0
  -31.5300   -2.3320   30.5900 C   0  0  0  0  0  0  0  0  0  0  0  0
  -31.4663   -3.5845   30.2587 C   0  0  0  0  0  0  0  0  0  0  0  0
  -30.2768   -4.4225   30.2051 C   0  0  0  0  0  0  0  0  0  0  0  0
  1  2  1  0
  1  8  1  0
  8  9  1  0
 10 11  1  0
  8 13  1  0
 12 13  1  0
  7 14  1  0
 13 14  1  0
  8 15  1  0
  6 16  1  0
 16 17  1  0
 16 18  2  0
 11 12  1  0
  2  3  2  0
  3  4  1  0
  4  5  2  0
  5  6  1  0
  6  7  2  0
  7  2  1  0
  9 19  2  0
 19 20  1  0
 20 21  2  0
 21 22  1  0
 22 10  2  0
 10  9  1  0
M  END

$$$$
