No_2881-gen_results/8p0m/2024-11-27-11-27-31/
     RDKit          3D

 20 22  0  0  0  0  0  0  0  0999 V2000
  -28.1229   -1.3353   28.4874 O   0  0  0  0  0  0  0  0  0  0  0  0
  -28.5208   -0.4363   29.0779 C   0  0  0  0  0  0  0  0  0  0  0  0
  -29.6977    0.0507   28.9764 C   0  0  0  0  0  0  0  0  0  0  0  0
  -27.5405    0.1756   30.0054 N   0  0  0  0  0  0  0  0  0  0  0  0
  -27.8890    1.2664   30.8176 C   0  0  0  0  0  0  0  0  0  0  0  0
  -30.5287   -0.3224   28.2067 N   0  0  0  0  0  0  0  0  0  0  0  0
  -30.0828    1.2815   29.8160 C   0  0  0  0  0  0  0  0  0  0  0  0
  -29.3828    1.7630   30.4508 C   0  0  0  0  0  0  0  0  0  0  0  0
  -26.2340   -0.3870   30.2204 C   0  0  0  0  0  0  0  0  0  0  0  0
  -25.1880    0.5886   30.3238 C   0  0  0  0  0  0  0  0  0  0  0  0
  -23.9285    0.0760   30.1675 C   0  0  0  0  0  0  0  0  0  0  0  0
  -23.4705   -0.2194   29.1857 C   0  0  0  0  0  0  0  0  0  0  0  0
  -22.0485   -0.6820   28.9873 C   0  0  0  0  0  0  0  0  0  0  0  0
  -21.3443   -0.4725   27.9311 C   0  0  0  0  0  0  0  0  0  0  0  0
  -21.8424    0.6525   27.1222 C   0  0  0  0  0  0  0  0  0  0  0  0
  -22.9035    1.2902   27.3194 C   0  0  0  0  0  0  0  0  0  0  0  0
  -23.7451    0.9541   28.3799 C   0  0  0  0  0  0  0  0  0  0  0  0
  -23.4283    2.5720   26.2587 Cl  0  0  0  0  0  0  0  0  0  0  0  0
  -24.0002   -1.2595   31.1531 C   0  0  0  0  0  0  0  0  0  0  0  0
  -25.4200   -1.2485   30.8775 C   0  0  0  0  0  0  0  0  0  0  0  0
  1  2  2  0
  2  3  1  0
  2  4  1  0
  4  5  1  0
  3  6  1  0
  3  7  1  0
  5  8  1  0
  4  9  1  0
  9 10  1  0
 10 11  2  0
 11 12  1  0
 16 18  1  0
 11 19  1  0
  9 20  1  0
 19 20  1  0
  7  8  1  0
 12 13  2  0
 13 14  1  0
 14 15  2  0
 15 16  1  0
 16 17  2  0
 17 12  1  0
M  END

$$$$
