No_2250-gen_results/8p0m/2024-11-27-11-27-31/
     RDKit          3D

 35 39  0  0  0  0  0  0  0  0999 V2000
  -28.0162   -0.8135   28.8779 C   0  0  0  0  0  0  0  0  0  0  0  0
  -27.0636   -0.1189   28.6079 C   0  0  0  0  0  0  0  0  0  0  0  0
  -27.0010    0.6913   27.4910 C   0  0  0  0  0  0  0  0  0  0  0  0
  -28.1373    0.7363   26.6350 C   0  0  0  0  0  0  0  0  0  0  0  0
  -29.2360    0.0765   27.0690 C   0  0  0  0  0  0  0  0  0  0  0  0
  -29.2177   -0.6429   28.1747 C   0  0  0  0  0  0  0  0  0  0  0  0
  -30.6116    0.1653   26.0711 Cl  0  0  0  0  0  0  0  0  0  0  0  0
  -25.7122   -0.2157   29.4104 C   0  0  0  0  0  0  0  0  0  0  0  0
  -25.0698    1.0084   29.7579 C   0  0  0  0  0  0  0  0  0  0  0  0
  -24.3907    1.5820   28.5881 C   0  0  0  0  0  0  0  0  0  0  0  0
  -25.1336    2.3381   27.5988 C   0  0  0  0  0  0  0  0  0  0  0  0
  -24.3463    3.2984   26.8677 C   0  0  0  0  0  0  0  0  0  0  0  0
  -26.3879    1.8735   27.0699 C   0  0  0  0  0  0  0  0  0  0  0  0
  -26.9189    2.7575   26.0808 C   0  0  0  0  0  0  0  0  0  0  0  0
  -23.3403    0.7979   28.0500 C   0  0  0  0  0  0  0  0  0  0  0  0
  -24.6870   -1.1341   28.6265 C   0  0  0  0  0  0  0  0  0  0  0  0
  -24.8267   -2.5201   28.9192 C   0  0  0  0  0  0  0  0  0  0  0  0
  -23.5916   -0.5898   28.0832 C   0  0  0  0  0  0  0  0  0  0  0  0
  -26.0199   -0.7989   30.8561 C   0  0  0  0  0  0  0  0  0  0  0  0
  -25.2550   -3.2615   29.9047 C   0  0  0  0  0  0  0  0  0  0  0  0
  -26.2673   -2.3842   30.7640 C   0  0  0  0  0  0  0  0  0  0  0  0
  -24.8073   -0.6675   31.7664 C   0  0  0  0  0  0  0  0  0  0  0  0
  -27.2478   -0.1889   31.5056 C   0  0  0  0  0  0  0  0  0  0  0  0
  -27.6789   -0.5219   32.7647 C   0  0  0  0  0  0  0  0  0  0  0  0
  -28.9887   -0.4373   33.0443 C   0  0  0  0  0  0  0  0  0  0  0  0
  -29.6718    0.3765   32.1954 C   0  0  0  0  0  0  0  0  0  0  0  0
  -29.1578    0.9518   31.0690 C   0  0  0  0  0  0  0  0  0  0  0  0
  -27.9414    0.6470   30.6739 C   0  0  0  0  0  0  0  0  0  0  0  0
  -27.3750    2.0655   31.3070 O   0  0  0  0  0  0  0  0  0  0  0  0
  -24.1788   -1.7558   32.3184 C   0  0  0  0  0  0  0  0  0  0  0  0
  -29.9955    1.7498   30.1557 C   0  0  0  0  0  0  0  0  0  0  0  0
  -29.7086    3.1540   29.8836 C   0  0  0  0  0  0  0  0  0  0  0  0
  -29.5721    3.9501   30.6777 C   0  0  0  0  0  0  0  0  0  0  0  0
  -29.2579    5.3455   30.3950 C   0  0  0  0  0  0  0  0  0  0  0  0
  -29.1415    5.7262   29.0533 C   0  0  0  0  0  0  0  0  0  0  0  0
  5  7  1  0
  2  8  1  0
  8  9  1  0
  9 10  1  0
 10 11  1  0
 11 12  2  0
  3 13  1  0
 11 13  1  0
 13 14  1  0
 10 15  1  0
  8 16  1  0
 16 17  1  0
 15 18  1  0
 16 18  1  0
  8 19  1  0
 17 20  1  0
 19 21  1  0
 20 21  1  0
 19 22  1  0
 19 23  1  0
 28 29  1  0
 22 30  2  0
 27 31  1  0
 31 32  1  0
 32 33  2  3
 33 34  1  0
 34 35  2  0
  1  2  2  0
  2  3  1  0
  3  4  2  0
  4  5  1  0
  5  6  2  0
  6  1  1  0
 23 24  2  0
 24 25  1  0
 25 26  2  0
 26 27  1  0
 27 28  2  0
 28 23  1  0
M  END

$$$$
