No_2067-gen_results/8p0m/2024-11-27-11-27-31/
     RDKit          3D

 20 22  0  0  0  0  0  0  0  0999 V2000
  -28.0162   -0.8135   28.8779 C   0  0  0  0  0  0  0  0  0  0  0  0
  -27.0636   -0.1189   28.6079 C   0  0  0  0  0  0  0  0  0  0  0  0
  -25.7923   -0.4302   29.0761 C   0  0  0  0  0  0  0  0  0  0  0  0
  -25.5314   -1.5876   29.6105 C   0  0  0  0  0  0  0  0  0  0  0  0
  -26.6366   -2.4336   29.9654 C   0  0  0  0  0  0  0  0  0  0  0  0
  -27.8411   -2.0285   29.6196 C   0  0  0  0  0  0  0  0  0  0  0  0
  -27.1742    1.2220   27.9238 C   0  0  0  0  0  0  0  0  0  0  0  0
  -26.3167    1.6337   27.1176 C   0  0  0  0  0  0  0  0  0  0  0  0
  -25.0722    1.2425   27.2396 C   0  0  0  0  0  0  0  0  0  0  0  0
  -24.7057    0.0996   28.1058 C   0  0  0  0  0  0  0  0  0  0  0  0
  -23.8320    1.8459   26.6061 C   0  0  0  0  0  0  0  0  0  0  0  0
  -22.6412    2.0443   27.2920 C   0  0  0  0  0  0  0  0  0  0  0  0
  -22.7752    2.3775   28.6554 C   0  0  0  0  0  0  0  0  0  0  0  0
  -24.2055    2.9167   25.8801 C   0  0  0  0  0  0  0  0  0  0  0  0
  -21.3985    1.5367   26.8558 C   0  0  0  0  0  0  0  0  0  0  0  0
  -21.7213    2.3166   29.4735 O   0  0  0  0  0  0  0  0  0  0  0  0
  -26.5094    2.7836   26.3161 C   0  0  0  0  0  0  0  0  0  0  0  0
  -25.4839    3.4042   25.5788 C   0  0  0  0  0  0  0  0  0  0  0  0
  -28.4006    1.7363   28.1071 O   0  0  0  0  0  0  0  0  0  0  0  0
  -23.8352    2.8009   29.1982 O   0  0  0  0  0  0  0  0  0  0  0  0
  2  7  1  0
  7  8  1  0
  3 10  1  0
 11 12  1  0
 12 13  1  0
 12 15  1  0
 13 16  1  0
  7 19  2  0
 13 20  2  0
 10  9  1  0
  1  2  2  0
  2  3  1  0
  3  4  2  0
  4  5  1  0
  5  6  2  0
  6  1  1  0
  8  9  2  0
  9 11  1  0
 11 14  2  0
 14 18  1  0
 18 17  2  0
 17  8  1  0
M  END

$$$$
