No_2597-gen_results/8p0m/2024-11-27-11-27-31/
     RDKit          3D

 26 28  0  0  0  0  0  0  0  0999 V2000
  -28.0162   -0.8135   28.8779 C   0  0  0  0  0  0  0  0  0  0  0  0
  -27.0636   -0.1190   28.6079 C   0  0  0  0  0  0  0  0  0  0  0  0
  -25.7923   -0.4302   29.0761 C   0  0  0  0  0  0  0  0  0  0  0  0
  -25.2700   -0.0487   30.0123 C   0  0  0  0  0  0  0  0  0  0  0  0
  -27.8851   -1.6684   30.1122 C   0  0  0  0  0  0  0  0  0  0  0  0
  -26.9250   -1.6039   31.1803 C   0  0  0  0  0  0  0  0  0  0  0  0
  -25.6201   -1.1588   31.0391 C   0  0  0  0  0  0  0  0  0  0  0  0
  -28.8541   -2.6756   30.4794 C   0  0  0  0  0  0  0  0  0  0  0  0
  -28.5790   -3.9272   30.4826 N   0  0  0  0  0  0  0  0  0  0  0  0
  -30.0387   -2.4054   30.4670 F   0  0  0  0  0  0  0  0  0  0  0  0
  -29.2218   -4.9599   30.4214 C   0  0  0  0  0  0  0  0  0  0  0  0
  -30.3798   -5.0166   29.5965 C   0  0  0  0  0  0  0  0  0  0  0  0
  -31.1891   -6.1703   29.8085 C   0  0  0  0  0  0  0  0  0  0  0  0
  -30.9779   -6.9077   30.8689 C   0  0  0  0  0  0  0  0  0  0  0  0
  -29.9911   -6.8600   31.7980 C   0  0  0  0  0  0  0  0  0  0  0  0
  -29.1010   -5.7911   31.6401 C   0  0  0  0  0  0  0  0  0  0  0  0
  -27.2356    0.6964   27.3369 C   0  0  0  0  0  0  0  0  0  0  0  0
  -26.7073    1.9424   27.3648 C   0  0  0  0  0  0  0  0  0  0  0  0
  -27.9189    0.2476   26.2252 C   0  0  0  0  0  0  0  0  0  0  0  0
  -27.9240    0.9663   25.0295 C   0  0  0  0  0  0  0  0  0  0  0  0
  -26.7140    2.7819   26.2482 C   0  0  0  0  0  0  0  0  0  0  0  0
  -27.3243    2.4060   25.1235 C   0  0  0  0  0  0  0  0  0  0  0  0
  -24.8343   -0.9033   27.9988 C   0  0  0  0  0  0  0  0  0  0  0  0
  -29.8377   -7.7132   32.9489 C   0  0  0  0  0  0  0  0  0  0  0  0
  -29.5555   -8.9247   32.7773 O   0  0  0  0  0  0  0  0  0  0  0  0
  -29.7386   -7.2382   34.1300 O   0  0  0  0  0  0  0  0  0  0  0  0
  1  2  1  0
  2  3  1  0
  3  4  2  0
  1  5  1  0
  5  6  1  0
  4  7  1  0
  6  7  2  0
  5  8  1  0
  8  9  1  0
  8 10  1  0
  9 11  1  0
  2 17  1  0
  3 23  1  0
 15 24  1  0
 24 25  2  0
 24 26  1  0
 11 12  2  0
 12 13  1  0
 13 14  2  0
 14 15  1  0
 15 16  2  0
 16 11  1  0
 17 18  2  0
 18 21  1  0
 21 22  2  0
 22 20  1  0
 20 19  2  0
 19 17  1  0
M  END

$$$$
