No_2190-gen_results/8p0m/2024-11-27-11-27-31/
     RDKit          3D

 13 14  0  0  0  0  0  0  0  0999 V2000
  -28.0162   -0.8135   28.8779 C   0  0  0  0  0  0  0  0  0  0  0  0
  -28.4690   -0.7850   29.8287 C   0  0  0  0  0  0  0  0  0  0  0  0
  -28.1816    0.4277   28.1134 C   0  0  0  0  0  0  0  0  0  0  0  0
  -27.0280    0.9338   27.5279 C   0  0  0  0  0  0  0  0  0  0  0  0
  -29.8654   -0.6573   30.0468 C   0  0  0  0  0  0  0  0  0  0  0  0
  -25.7919    0.1920   27.4485 C   0  0  0  0  0  0  0  0  0  0  0  0
  -24.6565    0.7937   26.8415 C   0  0  0  0  0  0  0  0  0  0  0  0
  -24.7044    2.0750   26.3474 C   0  0  0  0  0  0  0  0  0  0  0  0
  -25.8169    2.8487   26.4282 C   0  0  0  0  0  0  0  0  0  0  0  0
  -26.9476    2.2971   27.0053 C   0  0  0  0  0  0  0  0  0  0  0  0
  -30.3745    0.2459   29.0662 C   0  0  0  0  0  0  0  0  0  0  0  0
  -29.4458    0.9262   28.1840 C   0  0  0  0  0  0  0  0  0  0  0  0
  -23.5204    2.5357   25.8605 F   0  0  0  0  0  0  0  0  0  0  0  0
  3  4  1  0
  8 13  1  0
  4  6  2  0
  6  7  1  0
  7  8  2  0
  8  9  1  0
  9 10  2  0
 10  4  1  0
  1  2  2  0
  2  5  1  0
  5 11  2  0
 11 12  1  0
 12  3  2  0
  3  1  1  0
M  END

$$$$
