No_230-gen_results/8p0m/2024-11-27-11-27-31/
     RDKit          3D

 18 19  0  0  0  0  0  0  0  0999 V2000
  -28.1493   -0.8198   28.9079 Cl  0  0  0  0  0  0  0  0  0  0  0  0
  -26.9116   -0.0797   28.9452 C   0  0  0  0  0  0  0  0  0  0  0  0
  -26.7384    1.0439   29.2534 C   0  0  0  0  0  0  0  0  0  0  0  0
  -25.4392    1.7115   29.2755 C   0  0  0  0  0  0  0  0  0  0  0  0
  -24.2812    0.9888   28.8542 C   0  0  0  0  0  0  0  0  0  0  0  0
  -24.4868   -0.3041   28.4957 C   0  0  0  0  0  0  0  0  0  0  0  0
  -25.7046   -0.8667   28.5244 C   0  0  0  0  0  0  0  0  0  0  0  0
  -23.0983    1.8445   28.7510 C   0  0  0  0  0  0  0  0  0  0  0  0
  -22.8950    2.4794   27.5642 N   0  0  0  0  0  0  0  0  0  0  0  0
  -23.9239    2.9671   26.9056 C   0  0  0  0  0  0  0  0  0  0  0  0
  -24.6831    3.9000   27.4206 C   0  0  0  0  0  0  0  0  0  0  0  0
  -24.1011    2.5875   25.5390 C   0  0  0  0  0  0  0  0  0  0  0  0
  -25.6840    4.6034   26.6971 C   0  0  0  0  0  0  0  0  0  0  0  0
  -26.4620    5.5371   27.3557 C   0  0  0  0  0  0  0  0  0  0  0  0
  -26.2339    5.8478   28.6776 C   0  0  0  0  0  0  0  0  0  0  0  0
  -25.3011    5.1778   29.4381 C   0  0  0  0  0  0  0  0  0  0  0  0
  -24.5855    4.2791   28.8777 C   0  0  0  0  0  0  0  0  0  0  0  0
  -22.1755    1.5054   29.5562 O   0  0  0  0  0  0  0  0  0  0  0  0
  1  2  1  0
  5  8  1  0
  8  9  1  0
  9 10  1  0
 10 11  1  0
 10 12  1  0
  8 18  2  0
  2  3  2  0
  3  4  1  0
  4  5  2  0
  5  6  1  0
  6  7  2  0
  7  2  1  0
 11 13  2  0
 13 14  1  0
 14 15  2  0
 15 16  1  0
 16 17  2  0
 17 11  1  0
M  END

$$$$
