No_2890-gen_results/8p0m/2024-11-27-11-27-31/
     RDKit          3D

 16 16  0  0  0  0  0  0  0  0999 V2000
  -28.0162   -0.8135   28.8779 C   0  0  0  0  0  0  0  0  0  0  0  0
  -28.4690   -0.7850   29.8287 C   0  0  0  0  0  0  0  0  0  0  0  0
  -27.1356    0.2359   28.5352 C   0  0  0  0  0  0  0  0  0  0  0  0
  -26.8745    1.2825   29.3982 C   0  0  0  0  0  0  0  0  0  0  0  0
  -27.5070    1.2380   30.6295 C   0  0  0  0  0  0  0  0  0  0  0  0
  -28.3293    0.1745   30.9350 C   0  0  0  0  0  0  0  0  0  0  0  0
  -26.3055    0.2935   27.0232 Cl  0  0  0  0  0  0  0  0  0  0  0  0
  -28.9704    0.0742   32.1423 O   0  0  0  0  0  0  0  0  0  0  0  0
  -25.9744    2.4072   29.0524 C   0  0  0  0  0  0  0  0  0  0  0  0
  -24.6960    2.2973   29.2854 N   0  0  0  0  0  0  0  0  0  0  0  0
  -23.6990    2.2961   28.2928 C   0  0  0  0  0  0  0  0  0  0  0  0
  -23.8644    2.3950   27.0146 C   0  0  0  0  0  0  0  0  0  0  0  0
  -22.3724    2.2676   28.6822 O   0  0  0  0  0  0  0  0  0  0  0  0
  -24.2258    2.0821   30.6837 C   0  0  0  0  0  0  0  0  0  0  0  0
  -22.8481    2.0723   26.1967 N   0  0  0  0  0  0  0  0  0  0  0  0
  -24.9348    3.1734   26.3874 C   0  0  0  0  0  0  0  0  0  0  0  0
  3  7  1  0
  6  8  1  0
  4  9  1  0
  9 10  1  0
 10 11  1  0
 11 12  1  0
 11 13  2  0
 10 14  1  0
 12 15  2  0
 12 16  1  0
  1  2  2  0
  2  6  1  0
  6  5  2  0
  5  4  1  0
  4  3  2  0
  3  1  1  0
M  END

$$$$
