No_2756-gen_results/8p0m/2024-11-27-11-27-31/
     RDKit          3D

 15 16  0  0  0  0  0  0  0  0999 V2000
  -28.0162   -0.8135   28.8779 C   0  0  0  0  0  0  0  0  0  0  0  0
  -27.0636   -0.1190   28.6079 C   0  0  0  0  0  0  0  0  0  0  0  0
  -27.0010    0.6913   27.4910 C   0  0  0  0  0  0  0  0  0  0  0  0
  -25.8548    1.4825   27.0830 C   0  0  0  0  0  0  0  0  0  0  0  0
  -24.6901    1.4526   27.8807 C   0  0  0  0  0  0  0  0  0  0  0  0
  -24.7379    0.6010   29.0416 C   0  0  0  0  0  0  0  0  0  0  0  0
  -25.8234   -0.1688   29.3887 C   0  0  0  0  0  0  0  0  0  0  0  0
  -28.0352   -1.4960   30.2343 C   0  0  0  0  0  0  0  0  0  0  0  0
  -29.1820   -2.2686   30.5872 C   0  0  0  0  0  0  0  0  0  0  0  0
  -30.3597   -1.7878   30.1810 C   0  0  0  0  0  0  0  0  0  0  0  0
  -30.4291   -0.9417   29.0874 C   0  0  0  0  0  0  0  0  0  0  0  0
  -29.3270   -0.3759   28.5802 C   0  0  0  0  0  0  0  0  0  0  0  0
  -23.5162    2.2204   27.5531 C   0  0  0  0  0  0  0  0  0  0  0  0
  -22.3438    2.3408   28.6007 Cl  0  0  0  0  0  0  0  0  0  0  0  0
  -23.7390    3.2574   26.7251 C   0  0  0  0  0  0  0  0  0  0  0  0
  1  2  1  0
  5 13  1  0
 13 14  1  0
 13 15  1  0
  2  3  2  0
  3  4  1  0
  4  5  2  0
  5  6  1  0
  6  7  2  0
  7  2  1  0
  1  8  2  0
  8  9  1  0
  9 10  2  0
 10 11  1  0
 11 12  2  0
 12  1  1  0
M  END

$$$$
