No_2273-gen_results/8p0m/2024-11-27-11-27-31/
     RDKit          3D

 24 26  0  0  0  0  0  0  0  0999 V2000
  -28.0162   -0.8135   28.8779 C   0  0  0  0  0  0  0  0  0  0  0  0
  -27.0636   -0.1190   28.6079 C   0  0  0  0  0  0  0  0  0  0  0  0
  -25.7647   -0.3897   29.0360 C   0  0  0  0  0  0  0  0  0  0  0  0
  -25.5296   -1.5302   29.9014 C   0  0  0  0  0  0  0  0  0  0  0  0
  -26.6888   -2.2893   30.1810 C   0  0  0  0  0  0  0  0  0  0  0  0
  -27.8727   -1.9508   29.7373 C   0  0  0  0  0  0  0  0  0  0  0  0
  -28.9304   -2.7298   30.1154 O   0  0  0  0  0  0  0  0  0  0  0  0
  -24.5394    0.4211   28.7421 C   0  0  0  0  0  0  0  0  0  0  0  0
  -24.5049    1.2442   27.7743 N   0  0  0  0  0  0  0  0  0  0  0  0
  -23.4160    1.8660   27.3248 C   0  0  0  0  0  0  0  0  0  0  0  0
  -22.2119    1.6117   27.9136 N   0  0  0  0  0  0  0  0  0  0  0  0
  -23.2877    0.0911   29.3426 C   0  0  0  0  0  0  0  0  0  0  0  0
  -22.1048    0.7991   28.9333 C   0  0  0  0  0  0  0  0  0  0  0  0
  -23.4474    2.7767   26.3463 N   0  0  0  0  0  0  0  0  0  0  0  0
  -28.7884   -4.0020   30.6348 C   0  0  0  0  0  0  0  0  0  0  0  0
  -29.8224   -4.8496   30.2404 C   0  0  0  0  0  0  0  0  0  0  0  0
  -30.9408   -4.3701   30.5882 O   0  0  0  0  0  0  0  0  0  0  0  0
  -32.0853   -4.8429   30.1063 C   0  0  0  0  0  0  0  0  0  0  0  0
  -31.9146   -5.6801   29.2718 C   0  0  0  0  0  0  0  0  0  0  0  0
  -30.7556   -6.2113   28.6597 C   0  0  0  0  0  0  0  0  0  0  0  0
  -29.6725   -5.3316   28.8839 C   0  0  0  0  0  0  0  0  0  0  0  0
  -33.3401   -4.4009   30.6939 C   0  0  0  0  0  0  0  0  0  0  0  0
  -34.0308   -3.6980   30.4444 C   0  0  0  0  0  0  0  0  0  0  0  0
  -35.2861   -3.2874   31.1569 C   0  0  0  0  0  0  0  0  0  0  0  0
  6  7  1  0
  3  8  1  0
 10 14  1  0
  7 15  1  0
 15 16  2  3
 16 17  1  0
 17 18  1  0
 18 19  2  0
 19 20  1  0
 16 21  1  0
 20 21  2  0
 18 22  1  0
 22 23  2  3
 23 24  1  0
  1  2  2  0
  2  3  1  0
  3  4  2  0
  4  5  1  0
  5  6  2  0
  6  1  1  0
  8  9  2  0
  9 10  1  0
 10 11  2  0
 11 13  1  0
 13 12  2  0
 12  8  1  0
M  END

$$$$
