No_2512-gen_results/8p0m/2024-11-27-11-27-31/
     RDKit          3D

 19 20  0  0  0  0  0  0  0  0999 V2000
  -28.1229   -1.3353   28.4874 O   0  0  0  0  0  0  0  0  0  0  0  0
  -27.4806   -0.4044   28.7094 C   0  0  0  0  0  0  0  0  0  0  0  0
  -26.3804   -0.0867   27.9394 C   0  0  0  0  0  0  0  0  0  0  0  0
  -27.8993    0.6459   29.6321 N   0  0  0  0  0  0  0  0  0  0  0  0
  -25.3739    0.7467   28.5670 C   0  0  0  0  0  0  0  0  0  0  0  0
  -25.8679    1.7559   29.4748 C   0  0  0  0  0  0  0  0  0  0  0  0
  -27.0255    1.5167   30.1406 C   0  0  0  0  0  0  0  0  0  0  0  0
  -29.1223    0.3153   30.3307 C   0  0  0  0  0  0  0  0  0  0  0  0
  -29.1286   -0.4760   31.3870 C   0  0  0  0  0  0  0  0  0  0  0  0
  -28.2516   -0.2759   32.3097 C   0  0  0  0  0  0  0  0  0  0  0  0
  -27.8685   -0.4670   33.2202 C   0  0  0  0  0  0  0  0  0  0  0  0
  -27.2573   -1.1340   34.1694 C   0  0  0  0  0  0  0  0  0  0  0  0
  -26.6695   -0.9139   35.4899 C   0  0  0  0  0  0  0  0  0  0  0  0
  -26.8142    0.0346   36.2938 C   0  0  0  0  0  0  0  0  0  0  0  0
  -26.2166    0.0395   37.6375 C   0  0  0  0  0  0  0  0  0  0  0  0
  -25.3847   -0.9989   37.9507 C   0  0  0  0  0  0  0  0  0  0  0  0
  -25.2319   -2.0601   37.1253 C   0  0  0  0  0  0  0  0  0  0  0  0
  -25.8082   -2.0232   35.9113 C   0  0  0  0  0  0  0  0  0  0  0  0
  -26.7942    1.3199   31.6424 C   0  0  0  0  0  0  0  0  0  0  0  0
  1  2  2  0
  2  3  1  0
  2  4  1  0
  5  6  1  0
  4  7  1  0
  6  7  1  0
  4  8  1  0
  8  9  1  0
  9 10  2  3
 10 11  1  0
 11 12  2  3
 12 13  1  0
  7 19  1  0
  3  5  1  0
 13 14  2  0
 14 15  1  0
 15 16  2  0
 16 17  1  0
 17 18  2  0
 18 13  1  0
M  END

$$$$
