No_2039-gen_results/8p0m/2024-11-27-11-27-31/
     RDKit          3D

 19 20  0  0  0  0  0  0  0  0999 V2000
  -28.0162   -0.8135   28.8779 C   0  0  0  0  0  0  0  0  0  0  0  0
  -27.0636   -0.1189   28.6079 C   0  0  0  0  0  0  0  0  0  0  0  0
  -25.7923   -0.4302   29.0761 C   0  0  0  0  0  0  0  0  0  0  0  0
  -24.5456    0.3494   28.8225 C   0  0  0  0  0  0  0  0  0  0  0  0
  -24.6586    1.4196   27.8878 C   0  0  0  0  0  0  0  0  0  0  0  0
  -25.9471    1.6811   27.3792 C   0  0  0  0  0  0  0  0  0  0  0  0
  -27.0439    0.9739   27.6871 C   0  0  0  0  0  0  0  0  0  0  0  0
  -29.1882   -0.1472   29.0918 N   0  0  0  0  0  0  0  0  0  0  0  0
  -29.6010    0.1627   30.3266 C   0  0  0  0  0  0  0  0  0  0  0  0
  -30.2668   -0.6190   28.1881 C   0  0  0  0  0  0  0  0  0  0  0  0
  -23.4591    2.1629   27.6048 C   0  0  0  0  0  0  0  0  0  0  0  0
  -23.4733    3.1313   26.8062 N   0  0  0  0  0  0  0  0  0  0  0  0
  -22.3299    1.7567   28.0066 F   0  0  0  0  0  0  0  0  0  0  0  0
  -27.8410   -1.8330   29.6881 O   0  0  0  0  0  0  0  0  0  0  0  0
  -31.5672   -0.7262   28.7073 C   0  0  0  0  0  0  0  0  0  0  0  0
  -32.5240   -0.6108   27.8325 C   0  0  0  0  0  0  0  0  0  0  0  0
  -32.3017   -0.7868   26.4166 C   0  0  0  0  0  0  0  0  0  0  0  0
  -30.9739   -0.6339   25.9425 C   0  0  0  0  0  0  0  0  0  0  0  0
  -30.0435   -0.3158   26.8226 C   0  0  0  0  0  0  0  0  0  0  0  0
  1  2  1  0
  1  8  1  0
  8  9  1  0
  8 10  1  0
  5 11  1  0
 11 12  2  0
 11 13  1  0
  1 14  2  0
  2  3  2  0
  3  4  1  0
  4  5  2  0
  5  6  1  0
  6  7  2  0
  7  2  1  0
 10 15  2  0
 15 16  1  0
 16 17  2  0
 17 18  1  0
 18 19  2  0
 19 10  1  0
M  END

$$$$
