No_289-gen_results/8p0m/2024-11-27-11-27-31/
     RDKit          3D

 19 20  0  0  0  0  0  0  0  0999 V2000
  -28.0162   -0.8135   28.8779 C   0  0  0  0  0  0  0  0  0  0  0  0
  -28.4690   -0.7850   29.8287 C   0  0  0  0  0  0  0  0  0  0  0  0
  -28.7063   -0.5182   27.8769 F   0  0  0  0  0  0  0  0  0  0  0  0
  -26.6853   -0.0122   28.8635 C   0  0  0  0  0  0  0  0  0  0  0  0
  -26.3932    0.9410   28.1755 C   0  0  0  0  0  0  0  0  0  0  0  0
  -27.7643   -1.1760   31.2143 Cl  0  0  0  0  0  0  0  0  0  0  0  0
  -25.1929    1.6506   28.3449 C   0  0  0  0  0  0  0  0  0  0  0  0
  -24.1428    1.1137   29.0751 C   0  0  0  0  0  0  0  0  0  0  0  0
  -24.3509   -0.0470   29.7421 C   0  0  0  0  0  0  0  0  0  0  0  0
  -25.5791   -0.6511   29.6971 C   0  0  0  0  0  0  0  0  0  0  0  0
  -29.7264   -1.6061   29.8659 F   0  0  0  0  0  0  0  0  0  0  0  0
  -24.8859    2.8860   27.5054 C   0  0  0  0  0  0  0  0  0  0  0  0
  -25.2820    4.0398   27.9179 N   0  0  0  0  0  0  0  0  0  0  0  0
  -24.5304    2.8154   26.2683 O   0  0  0  0  0  0  0  0  0  0  0  0
  -25.7837    4.4036   29.2103 C   0  0  0  0  0  0  0  0  0  0  0  0
  -25.9879    5.7855   29.4417 C   0  0  0  0  0  0  0  0  0  0  0  0
  -25.6181    6.7455   28.5029 C   0  0  0  0  0  0  0  0  0  0  0  0
  -25.0874    6.3900   27.2626 C   0  0  0  0  0  0  0  0  0  0  0  0
  -24.8621    5.0769   27.0175 C   0  0  0  0  0  0  0  0  0  0  0  0
  1  2  1  0
  1  3  1  0
  1  4  1  0
  2  6  1  0
  2 11  1  0
  7 12  1  0
 12 13  1  0
 12 14  2  0
 13 15  1  0
 16 17  1  0
 13 19  1  0
 18 19  1  0
 15 16  1  0
 17 18  1  0
  4  5  2  0
  5  7  1  0
  7  8  2  0
  8  9  1  0
  9 10  2  0
 10  4  1  0
M  END

$$$$
