No_2872-gen_results/8p0m/2024-11-27-11-27-31/
     RDKit          3D

 18 18  0  0  0  0  0  0  0  0999 V2000
  -28.0162   -0.8135   28.8779 C   0  0  0  0  0  0  0  0  0  0  0  0
  -27.0636   -0.1189   28.6079 C   0  0  0  0  0  0  0  0  0  0  0  0
  -25.7923   -0.4302   29.0761 C   0  0  0  0  0  0  0  0  0  0  0  0
  -25.5756   -1.5654   29.9363 C   0  0  0  0  0  0  0  0  0  0  0  0
  -26.7354   -2.3004   30.2173 C   0  0  0  0  0  0  0  0  0  0  0  0
  -27.9184   -1.9537   29.7629 C   0  0  0  0  0  0  0  0  0  0  0  0
  -27.1463    1.2916   27.6407 Cl  0  0  0  0  0  0  0  0  0  0  0  0
  -29.0683   -2.7883   30.1813 C   0  0  0  0  0  0  0  0  0  0  0  0
  -29.3554   -2.6572   31.3478 F   0  0  0  0  0  0  0  0  0  0  0  0
  -30.0473   -2.4903   29.3384 F   0  0  0  0  0  0  0  0  0  0  0  0
  -28.7514   -4.1208   29.9831 F   0  0  0  0  0  0  0  0  0  0  0  0
  -24.7532    0.4590   28.7560 O   0  0  0  0  0  0  0  0  0  0  0  0
  -23.6084    0.0896   29.1197 C   0  0  0  0  0  0  0  0  0  0  0  0
  -22.5251    0.9484   28.5242 C   0  0  0  0  0  0  0  0  0  0  0  0
  -22.8770    2.1395   28.0803 N   0  0  0  0  0  0  0  0  0  0  0  0
  -21.2855    0.4805   28.3548 N   0  0  0  0  0  0  0  0  0  0  0  0
  -24.1512    2.6046   28.0601 C   0  0  0  0  0  0  0  0  0  0  0  0
  -24.5050    3.8684   27.4115 C   0  0  0  0  0  0  0  0  0  0  0  0
  2  7  1  0
  6  8  1  0
  8  9  1  0
  8 10  1  0
  8 11  1  0
  3 12  1  0
 12 13  1  0
 13 14  1  0
 14 15  1  0
 14 16  2  0
 15 17  1  0
 17 18  1  0
  1  2  2  0
  2  3  1  0
  3  4  2  0
  4  5  1  0
  5  6  2  0
  6  1  1  0
M  END

$$$$
