No_2895-gen_results/8p0m/2024-11-27-11-27-31/
     RDKit          3D

 23 25  0  0  0  0  0  0  0  0999 V2000
  -28.0162   -0.8135   28.8779 C   0  0  0  0  0  0  0  0  0  0  0  0
  -27.0636   -0.1189   28.6079 C   0  0  0  0  0  0  0  0  0  0  0  0
  -25.7647   -0.3897   29.0360 C   0  0  0  0  0  0  0  0  0  0  0  0
  -25.5296   -1.5302   29.9014 C   0  0  0  0  0  0  0  0  0  0  0  0
  -26.6888   -2.2893   30.1810 C   0  0  0  0  0  0  0  0  0  0  0  0
  -27.8727   -1.9508   29.7373 C   0  0  0  0  0  0  0  0  0  0  0  0
  -24.4208    0.2303   28.7927 C   0  0  0  0  0  0  0  0  0  0  0  0
  -24.3142    1.1690   27.8085 C   0  0  0  0  0  0  0  0  0  0  0  0
  -23.0338    1.7596   27.5475 C   0  0  0  0  0  0  0  0  0  0  0  0
  -21.8670    1.3216   28.2051 C   0  0  0  0  0  0  0  0  0  0  0  0
  -23.2241   -0.2056   29.4136 C   0  0  0  0  0  0  0  0  0  0  0  0
  -21.9672    0.3743   29.0957 C   0  0  0  0  0  0  0  0  0  0  0  0
  -29.2480   -2.8810   30.2044 Cl  0  0  0  0  0  0  0  0  0  0  0  0
  -29.2541   -0.5325   28.4623 F   0  0  0  0  0  0  0  0  0  0  0  0
  -23.0095    2.7601   26.6161 O   0  0  0  0  0  0  0  0  0  0  0  0
  -23.7097    2.7099   25.6550 C   0  0  0  0  0  0  0  0  0  0  0  0
  -27.1104    0.9633   27.7595 O   0  0  0  0  0  0  0  0  0  0  0  0
  -27.4191    0.8682   26.4766 C   0  0  0  0  0  0  0  0  0  0  0  0
  -26.8209    0.3748   25.6189 C   0  0  0  0  0  0  0  0  0  0  0  0
  -28.4463    1.8608   26.1494 C   0  0  0  0  0  0  0  0  0  0  0  0
  -28.9607    1.8865   24.8729 C   0  0  0  0  0  0  0  0  0  0  0  0
  -27.1548    0.3163   24.2490 C   0  0  0  0  0  0  0  0  0  0  0  0
  -28.2614    1.1337   23.9032 C   0  0  0  0  0  0  0  0  0  0  0  0
  3  7  1  0
  6 13  1  0
  1 14  1  0
  9 15  1  0
 15 16  1  0
  2 17  1  0
 17 18  1  0
  7  8  2  0
  8  9  1  0
  9 10  2  0
 10 12  1  0
 12 11  2  0
 11  7  1  0
  1  2  2  0
  2  3  1  0
  3  4  2  0
  4  5  1  0
  5  6  2  0
  6  1  1  0
 18 19  2  0
 19 22  1  0
 22 23  2  0
 23 21  1  0
 21 20  2  0
 20 18  1  0
M  END

$$$$
