No_2444-gen_results/8p0m/2024-11-27-11-27-31/
     RDKit          3D

 19 19  0  0  0  0  0  0  0  0999 V2000
  -28.0162   -0.8135   28.8779 C   0  0  0  0  0  0  0  0  0  0  0  0
  -27.0636   -0.1190   28.6079 C   0  0  0  0  0  0  0  0  0  0  0  0
  -26.9716    0.7139   27.5060 C   0  0  0  0  0  0  0  0  0  0  0  0
  -28.1053    0.7744   26.6421 C   0  0  0  0  0  0  0  0  0  0  0  0
  -29.2008    0.1044   27.0527 C   0  0  0  0  0  0  0  0  0  0  0  0
  -29.2096   -0.6029   28.1853 C   0  0  0  0  0  0  0  0  0  0  0  0
  -30.3702    0.2264   26.1604 C   0  0  0  0  0  0  0  0  0  0  0  0
  -30.8993    1.2632   26.1932 F   0  0  0  0  0  0  0  0  0  0  0  0
  -31.2899   -0.7321   26.5963 F   0  0  0  0  0  0  0  0  0  0  0  0
  -30.0568   -0.1619   24.8992 F   0  0  0  0  0  0  0  0  0  0  0  0
  -25.6840    1.4115   27.1158 C   0  0  0  0  0  0  0  0  0  0  0  0
  -25.3999    2.2352   26.4018 C   0  0  0  0  0  0  0  0  0  0  0  0
  -24.0821    2.8726   26.1817 C   0  0  0  0  0  0  0  0  0  0  0  0
  -22.9866    2.3355   26.9013 C   0  0  0  0  0  0  0  0  0  0  0  0
  -23.2994    1.2114   27.7558 C   0  0  0  0  0  0  0  0  0  0  0  0
  -24.5713    0.7362   27.9498 C   0  0  0  0  0  0  0  0  0  0  0  0
  -22.1391    0.6724   28.4876 C   0  0  0  0  0  0  0  0  0  0  0  0
  -23.3818    1.1009   28.7855 P   0  0  0  0  0  0  0  0  0  0  0  0
  -24.6586   -0.8210   27.5957 C   0  0  0  0  0  0  0  0  0  0  0  0
  5  7  1  0
  7  8  1  0
  7  9  1  0
  7 10  1  0
  3 11  1  0
 11 12  2  3
 12 13  1  0
 13 14  2  3
 14 15  1  0
 11 16  1  0
 15 17  1  0
 15 18  1  0
 16 19  1  0
  1  2  2  0
  2  3  1  0
  3  4  2  0
  4  5  1  0
  5  6  2  0
  6  1  1  0
M  END

$$$$
