No_2595-gen_results/8p0m/2024-11-27-11-27-31/
     RDKit          3D

  5  4  0  0  0  0  0  0  0  0999 V2000
  -28.1493   -0.8198   28.9079 Cl  0  0  0  0  0  0  0  0  0  0  0  0
  -27.8339    0.4961   29.0598 C   0  0  0  0  0  0  0  0  0  0  0  0
  -27.6022    1.0128   30.2974 C   0  0  0  0  0  0  0  0  0  0  0  0
  -27.5822    0.3544   31.3106 C   0  0  0  0  0  0  0  0  0  0  0  0
  -27.8896   -1.0945   31.2200 C   0  0  0  0  0  0  0  0  0  0  0  0
  1  2  1  0
  2  3  1  0
  3  4  2  3
  4  5  1  0
M  END

$$$$
