No_2705-gen_results/8p0m/2024-11-27-11-27-31/
     RDKit          3D

 13 14  0  0  0  0  0  0  0  0999 V2000
  -28.0162   -0.8135   28.8779 C   0  0  0  0  0  0  0  0  0  0  0  0
  -27.0636   -0.1190   28.6079 C   0  0  0  0  0  0  0  0  0  0  0  0
  -25.8176   -0.3427   29.0488 N   0  0  0  0  0  0  0  0  0  0  0  0
  -25.6067   -1.4414   29.8929 C   0  0  0  0  0  0  0  0  0  0  0  0
  -26.6760   -2.2193   30.2363 C   0  0  0  0  0  0  0  0  0  0  0  0
  -27.8635   -1.9317   29.7671 C   0  0  0  0  0  0  0  0  0  0  0  0
  -27.1276    1.1048   27.7424 C   0  0  0  0  0  0  0  0  0  0  0  0
  -26.1508    1.9473   27.6711 C   0  0  0  0  0  0  0  0  0  0  0  0
  -26.1248    3.1345   27.0784 C   0  0  0  0  0  0  0  0  0  0  0  0
  -25.0165    4.0991   27.0221 C   0  0  0  0  0  0  0  0  0  0  0  0
  -23.7855    3.5746   27.3489 C   0  0  0  0  0  0  0  0  0  0  0  0
  -23.6747    2.2850   27.7775 C   0  0  0  0  0  0  0  0  0  0  0  0
  -24.7775    1.4497   27.9457 C   0  0  0  0  0  0  0  0  0  0  0  0
  2  7  1  0
  7  8  1  0
  1  2  2  0
  2  3  1  0
  3  4  2  0
  4  5  1  0
  5  6  2  0
  6  1  1  0
  8  9  2  0
  9 10  1  0
 10 11  2  0
 11 12  1  0
 12 13  2  0
 13  8  1  0
M  END

$$$$
