No_2835-gen_results/8p0m/2024-11-27-11-27-31/
     RDKit          3D

 32 34  0  0  0  0  0  0  0  0999 V2000
  -28.0162   -0.8135   28.8779 C   0  0  0  0  0  0  0  0  0  0  0  0
  -27.0636   -0.1189   28.6079 C   0  0  0  0  0  0  0  0  0  0  0  0
  -25.7923   -0.4302   29.0761 C   0  0  0  0  0  0  0  0  0  0  0  0
  -25.5756   -1.5654   29.9363 C   0  0  0  0  0  0  0  0  0  0  0  0
  -26.7354   -2.3004   30.2173 C   0  0  0  0  0  0  0  0  0  0  0  0
  -27.9184   -1.9537   29.7629 C   0  0  0  0  0  0  0  0  0  0  0  0
  -29.0732   -2.7835   30.1783 C   0  0  0  0  0  0  0  0  0  0  0  0
  -29.0022   -3.9850   30.2347 O   0  0  0  0  0  0  0  0  0  0  0  0
  -30.1809   -2.1900   30.4596 O   0  0  0  0  0  0  0  0  0  0  0  0
  -27.0949    1.1102   27.7546 C   0  0  0  0  0  0  0  0  0  0  0  0
  -26.1987    1.4406   26.9167 C   0  0  0  0  0  0  0  0  0  0  0  0
  -24.8225    0.9093   27.1901 C   0  0  0  0  0  0  0  0  0  0  0  0
  -24.6158   -0.0234   28.1698 C   0  0  0  0  0  0  0  0  0  0  0  0
  -23.6425    1.5530   26.5781 C   0  0  0  0  0  0  0  0  0  0  0  0
  -22.5238    1.6692   27.2704 N   0  0  0  0  0  0  0  0  0  0  0  0
  -23.6960    1.9602   25.3991 O   0  0  0  0  0  0  0  0  0  0  0  0
  -22.3925    1.3950   28.6560 C   0  0  0  0  0  0  0  0  0  0  0  0
  -28.4754    1.7456   27.6385 C   0  0  0  0  0  0  0  0  0  0  0  0
  -28.9282    2.1924   26.8404 Br  0  0  0  0  0  0  0  0  0  0  0  0
  -28.9978    1.5974   28.9481 F   0  0  0  0  0  0  0  0  0  0  0  0
  -23.9913   -2.0204   30.3481 Cl  0  0  0  0  0  0  0  0  0  0  0  0
  -31.3767   -2.8403   30.4529 C   0  0  0  0  0  0  0  0  0  0  0  0
  -32.0863   -2.8600   29.2374 C   0  0  0  0  0  0  0  0  0  0  0  0
  -31.9371   -3.8043   28.5435 O   0  0  0  0  0  0  0  0  0  0  0  0
  -32.6722   -1.8056   28.7384 O   0  0  0  0  0  0  0  0  0  0  0  0
  -32.2492   -2.0258   31.5143 C   0  0  0  0  0  0  0  0  0  0  0  0
  -32.4672   -0.7137   31.4565 C   0  0  0  0  0  0  0  0  0  0  0  0
  -33.7523   -0.2867   31.3546 C   0  0  0  0  0  0  0  0  0  0  0  0
  -34.6803   -0.5973   32.1175 C   0  0  0  0  0  0  0  0  0  0  0  0
  -34.3275   -1.0325   33.3880 C   0  0  0  0  0  0  0  0  0  0  0  0
  -33.5313   -2.2508   33.5757 C   0  0  0  0  0  0  0  0  0  0  0  0
  -32.6414   -2.8135   32.6667 C   0  0  0  0  0  0  0  0  0  0  0  0
  6  7  1  0
  7  8  2  0
  7  9  1  0
 12 14  1  0
 14 15  1  0
 14 16  2  0
 15 17  1  0
 10 18  1  0
 18 19  1  0
 18 20  1  0
  4 21  1  0
  9 22  1  0
 22 23  1  0
 23 24  2  0
 23 25  1  0
 22 26  1  0
 26 27  1  0
 27 28  1  0
 28 29  2  0
 29 30  1  0
 30 31  2  0
 26 32  1  0
 31 32  1  0
  1  2  2  0
  3  4  2  0
  4  5  1  0
  5  6  2  0
  6  1  1  0
  2  3  1  0
  3 13  1  0
 13 12  2  0
 12 11  1  0
 11 10  2  0
 10  2  1  0
M  END

$$$$
