No_2567-gen_results/8p0m/2024-11-27-11-27-31/
     RDKit          3D

  7  7  0  0  0  0  0  0  0  0999 V2000
  -28.0544   -1.0498   28.7246 N   0  0  0  0  0  0  0  0  0  0  0  0
  -27.7460   -0.0733   29.0098 C   0  0  0  0  0  0  0  0  0  0  0  0
  -27.1741    0.7325   28.8254 C   0  0  0  0  0  0  0  0  0  0  0  0
  -26.2627    0.6359   27.6462 C   0  0  0  0  0  0  0  0  0  0  0  0
  -26.3245   -0.5476   27.0542 C   0  0  0  0  0  0  0  0  0  0  0  0
  -27.1124   -1.4590   27.5802 C   0  0  0  0  0  0  0  0  0  0  0  0
  -28.6698    0.2874   30.1965 F   0  0  0  0  0  0  0  0  0  0  0  0
  2  7  1  0
  1  2  2  0
  2  3  1  0
  3  4  2  0
  4  5  1  0
  5  6  2  0
  6  1  1  0
M  END

$$$$
