No_2330-gen_results/8p0m/2024-11-27-11-27-31/
     RDKit          3D

 22 24  0  0  0  0  0  0  0  0999 V2000
  -28.0162   -0.8135   28.8779 C   0  0  0  0  0  0  0  0  0  0  0  0
  -28.4690   -0.7850   29.8287 C   0  0  0  0  0  0  0  0  0  0  0  0
  -26.5042   -0.7777   28.8766 C   0  0  0  0  0  0  0  0  0  0  0  0
  -25.6540   -0.6597   27.7191 C   0  0  0  0  0  0  0  0  0  0  0  0
  -27.9180   -0.9374   31.1824 C   0  0  0  0  0  0  0  0  0  0  0  0
  -26.5423   -0.9399   31.2606 C   0  0  0  0  0  0  0  0  0  0  0  0
  -25.7832   -0.8935   30.1201 C   0  0  0  0  0  0  0  0  0  0  0  0
  -25.2204    0.6866   27.3939 C   0  0  0  0  0  0  0  0  0  0  0  0
  -23.9014    0.8981   27.7598 C   0  0  0  0  0  0  0  0  0  0  0  0
  -23.1016    0.3129   28.6912 C   0  0  0  0  0  0  0  0  0  0  0  0
  -23.5517   -0.6021   29.5318 C   0  0  0  0  0  0  0  0  0  0  0  0
  -24.3908   -0.8521   30.3825 C   0  0  0  0  0  0  0  0  0  0  0  0
  -23.2981    2.2285   27.1048 C   0  0  0  0  0  0  0  0  0  0  0  0
  -25.8862    1.4308   26.4512 C   0  0  0  0  0  0  0  0  0  0  0  0
  -23.9859    3.0237   26.2666 C   0  0  0  0  0  0  0  0  0  0  0  0
  -25.3377    2.6477   25.9360 C   0  0  0  0  0  0  0  0  0  0  0  0
  -21.6394    0.6865   28.6420 C   0  0  0  0  0  0  0  0  0  0  0  0
  -30.0758   -0.7940   29.8350 C   0  0  0  0  0  0  0  0  0  0  0  0
  -30.6884    0.1065   30.5638 O   0  0  0  0  0  0  0  0  0  0  0  0
  -30.6615   -1.5042   29.0747 O   0  0  0  0  0  0  0  0  0  0  0  0
  -22.9432   -2.0129   29.0787 C   0  0  0  0  0  0  0  0  0  0  0  0
  -23.9922   -0.6946   31.6213 O   0  0  0  0  0  0  0  0  0  0  0  0
  3  4  1  0
  4  8  1  0
 10 11  1  0
  7 12  1  0
 11 12  1  0
 10 17  1  0
  2 18  1  0
 18 19  1  0
 18 20  2  0
 11 21  1  0
 12 22  2  0
 10  9  1  0
  8  9  2  0
  9 13  1  0
 13 15  2  0
 15 16  1  0
 16 14  2  0
 14  8  1  0
  1  2  2  0
  2  5  1  0
  5  6  2  0
  6  7  1  0
  7  3  2  0
  3  1  1  0
M  END

$$$$
