No_2087-gen_results/8p0m/2024-11-27-11-27-31/
     RDKit          3D

 19 22  0  0  0  0  0  0  0  0999 V2000
  -28.0162   -0.8135   28.8779 C   0  0  0  0  0  0  0  0  0  0  0  0
  -27.0636   -0.1190   28.6079 C   0  0  0  0  0  0  0  0  0  0  0  0
  -26.9716    0.7139   27.5060 C   0  0  0  0  0  0  0  0  0  0  0  0
  -28.1053    0.7744   26.6421 C   0  0  0  0  0  0  0  0  0  0  0  0
  -29.2008    0.1044   27.0527 C   0  0  0  0  0  0  0  0  0  0  0  0
  -29.2096   -0.6029   28.1853 C   0  0  0  0  0  0  0  0  0  0  0  0
  -30.5651    0.2430   26.0493 Cl  0  0  0  0  0  0  0  0  0  0  0  0
  -25.7033   -0.2337   29.4132 C   0  0  0  0  0  0  0  0  0  0  0  0
  -25.4879   -0.8938   30.2620 N   0  0  0  0  0  0  0  0  0  0  0  0
  -24.5668    0.6764   28.9815 C   0  0  0  0  0  0  0  0  0  0  0  0
  -23.3538    0.4148   29.6577 C   0  0  0  0  0  0  0  0  0  0  0  0
  -23.2446   -0.4002   30.7191 C   0  0  0  0  0  0  0  0  0  0  0  0
  -24.3791   -1.1648   31.0253 C   0  0  0  0  0  0  0  0  0  0  0  0
  -22.2595    1.1923   29.3024 O   0  0  0  0  0  0  0  0  0  0  0  0
  -22.1455    1.6098   27.9937 C   0  0  0  0  0  0  0  0  0  0  0  0
  -24.4725    1.5027   27.8184 C   0  0  0  0  0  0  0  0  0  0  0  0
  -23.2238    2.0097   27.3575 C   0  0  0  0  0  0  0  0  0  0  0  0
  -25.7976    1.5187   27.0700 C   0  0  0  0  0  0  0  0  0  0  0  0
  -25.8511    2.3511   26.0916 O   0  0  0  0  0  0  0  0  0  0  0  0
  5  7  1  0
  2  8  1  0
 11 14  1  0
 14 15  1  0
 10 16  1  0
 15 17  2  0
 16 17  1  0
  3 18  1  0
 16 18  1  0
 18 19  2  0
  1  2  2  0
  2  3  1  0
  3  4  2  0
  4  5  1  0
  5  6  2  0
  6  1  1  0
  8  9  2  0
  9 13  1  0
 13 12  2  0
 12 11  1  0
 11 10  2  0
 10  8  1  0
M  END

$$$$
