No_2162-gen_results/8p0m/2024-11-27-11-27-31/
     RDKit          3D

 15 15  0  0  0  0  0  0  0  0999 V2000
  -28.0162   -0.8135   28.8779 C   0  0  0  0  0  0  0  0  0  0  0  0
  -27.0636   -0.1189   28.6079 C   0  0  0  0  0  0  0  0  0  0  0  0
  -26.8756    1.1325   28.9134 C   0  0  0  0  0  0  0  0  0  0  0  0
  -25.6883    1.9515   28.5672 C   0  0  0  0  0  0  0  0  0  0  0  0
  -24.6394    1.2834   27.8753 C   0  0  0  0  0  0  0  0  0  0  0  0
  -24.8068   -0.0513   27.6040 C   0  0  0  0  0  0  0  0  0  0  0  0
  -25.9019   -0.7670   27.9511 C   0  0  0  0  0  0  0  0  0  0  0  0
  -28.6455   -0.5282   30.2428 C   0  0  0  0  0  0  0  0  0  0  0  0
  -29.5544   -1.0303   30.6491 C   0  0  0  0  0  0  0  0  0  0  0  0
  -30.3078   -1.8298   29.9524 C   0  0  0  0  0  0  0  0  0  0  0  0
  -31.3582   -1.9474   29.7325 N   0  0  0  0  0  0  0  0  0  0  0  0
  -23.4478    1.9809   27.4659 C   0  0  0  0  0  0  0  0  0  0  0  0
  -23.4076    2.6924   26.6325 O   0  0  0  0  0  0  0  0  0  0  0  0
  -22.2367    1.5362   28.1302 N   0  0  0  0  0  0  0  0  0  0  0  0
  -32.0007   -2.8387   28.8798 C   0  0  0  0  0  0  0  0  0  0  0  0
  1  2  2  3
  2  3  1  0
  3  4  1  0
  4  5  1  0
  5  6  1  0
  2  7  1  0
  6  7  1  0
  1  8  1  0
  8  9  2  3
  9 10  1  0
 10 11  1  0
  5 12  1  0
 12 13  2  0
 12 14  1  0
 11 15  1  0
M  END

$$$$
