No_2420-gen_results/8p0m/2024-11-27-11-27-31/
     RDKit          3D

 35 36  0  0  0  0  0  0  0  0999 V2000
  -28.0162   -0.8135   28.8779 C   0  0  0  0  0  0  0  0  0  0  0  0
  -27.0636   -0.1189   28.6079 C   0  0  0  0  0  0  0  0  0  0  0  0
  -25.7923   -0.4302   29.0761 C   0  0  0  0  0  0  0  0  0  0  0  0
  -24.5456    0.3494   28.8225 C   0  0  0  0  0  0  0  0  0  0  0  0
  -23.2409    0.0217   29.3323 C   0  0  0  0  0  0  0  0  0  0  0  0
  -27.8820   -1.8995   29.8633 C   0  0  0  0  0  0  0  0  0  0  0  0
  -26.6706   -2.3272   30.3212 C   0  0  0  0  0  0  0  0  0  0  0  0
  -25.5433   -1.5852   29.9316 C   0  0  0  0  0  0  0  0  0  0  0  0
  -22.1918    0.8302   29.0004 C   0  0  0  0  0  0  0  0  0  0  0  0
  -22.1472    1.7783   28.0287 C   0  0  0  0  0  0  0  0  0  0  0  0
  -24.3170    1.1382   27.6172 C   0  0  0  0  0  0  0  0  0  0  0  0
  -23.2808    1.9246   27.3468 C   0  0  0  0  0  0  0  0  0  0  0  0
  -28.9739   -2.6470   30.2439 O   0  0  0  0  0  0  0  0  0  0  0  0
  -29.2557   -2.7738   31.5645 C   0  0  0  0  0  0  0  0  0  0  0  0
  -30.6448   -2.6529   31.8539 C   0  0  0  0  0  0  0  0  0  0  0  0
  -31.4319   -2.1131   30.9437 C   0  0  0  0  0  0  0  0  0  0  0  0
  -32.3913   -2.4953   30.6491 O   0  0  0  0  0  0  0  0  0  0  0  0
  -30.7691   -1.9744   33.1606 O   0  0  0  0  0  0  0  0  0  0  0  0
  -23.3732    2.7862   26.3273 F   0  0  0  0  0  0  0  0  0  0  0  0
  -31.0145   -1.0029   30.3789 O   0  0  0  0  0  0  0  0  0  0  0  0
  -31.8324    0.0719   29.9793 C   0  0  0  0  0  0  0  0  0  0  0  0
  -31.1982    0.7109   28.9129 C   0  0  0  0  0  0  0  0  0  0  0  0
  -30.6756    2.0693   29.1467 C   0  0  0  0  0  0  0  0  0  0  0  0
  -30.4025    2.5955   30.4072 P   0  0  0  0  0  0  0  0  0  0  0  0
  -29.4618    3.3915   30.4946 O   0  0  0  0  0  0  0  0  0  0  0  0
  -31.6708    3.4216   30.8449 O   0  0  0  0  0  0  0  0  0  0  0  0
  -30.2063    1.4767   31.4715 O   0  0  0  0  0  0  0  0  0  0  0  0
  -32.0563    0.5893   27.6772 N   0  0  0  0  0  0  0  0  0  0  0  0
  -31.7772   -0.2138   26.7200 C   0  0  0  0  0  0  0  0  0  0  0  0
  -32.5447   -0.3142   25.6852 N   0  0  0  0  0  0  0  0  0  0  0  0
  -30.9857   -1.2565   26.9619 O   0  0  0  0  0  0  0  0  0  0  0  0
  -30.5243   -2.3307   34.1554 C   0  0  0  0  0  0  0  0  0  0  0  0
  -30.6480   -3.4293   34.6685 C   0  0  0  0  0  0  0  0  0  0  0  0
  -31.4942   -4.2894   34.0629 C   0  0  0  0  0  0  0  0  0  0  0  0
  -32.5436   -4.0086   33.6569 C   0  0  0  0  0  0  0  0  0  0  0  0
  3  4  1  0
  6 13  1  0
 13 14  1  0
 14 15  1  0
 15 16  1  0
 16 17  2  0
 15 18  1  0
 12 19  1  0
 16 20  1  0
 20 21  1  0
 21 22  1  0
 22 23  1  0
 23 24  1  0
 24 25  2  0
 24 26  1  0
 24 27  1  0
 22 28  1  0
 28 29  1  0
 29 30  1  0
 29 31  2  0
 18 32  1  0
 32 33  2  3
 33 34  1  0
 34 35  2  0
  1  2  2  0
  2  3  1  0
  3  8  2  0
  8  7  1  0
  7  6  2  0
  6  1  1  0
  4  5  2  0
  5  9  1  0
  9 10  2  0
 10 12  1  0
 12 11  2  0
 11  4  1  0
M  END

$$$$
