No_2550-gen_results/8p0m/2024-11-27-11-27-31/
     RDKit          3D

 35 38  0  0  0  0  0  0  0  0999 V2000
  -28.0162   -0.8135   28.8779 C   0  0  0  0  0  0  0  0  0  0  0  0
  -27.0636   -0.1190   28.6079 C   0  0  0  0  0  0  0  0  0  0  0  0
  -25.7923   -0.4302   29.0761 C   0  0  0  0  0  0  0  0  0  0  0  0
  -24.5456    0.3494   28.8225 C   0  0  0  0  0  0  0  0  0  0  0  0
  -24.6586    1.4196   27.8878 C   0  0  0  0  0  0  0  0  0  0  0  0
  -23.5403    2.1791   27.5500 C   0  0  0  0  0  0  0  0  0  0  0  0
  -22.2925    1.7428   28.0473 C   0  0  0  0  0  0  0  0  0  0  0  0
  -22.1712    0.7079   28.9284 C   0  0  0  0  0  0  0  0  0  0  0  0
  -23.3345   -0.0624   29.3081 C   0  0  0  0  0  0  0  0  0  0  0  0
  -27.9466   -1.8823   29.8708 C   0  0  0  0  0  0  0  0  0  0  0  0
  -26.7159   -2.3287   30.3060 C   0  0  0  0  0  0  0  0  0  0  0  0
  -25.5921   -1.5643   29.9672 C   0  0  0  0  0  0  0  0  0  0  0  0
  -29.1222   -2.6863   30.2515 C   0  0  0  0  0  0  0  0  0  0  0  0
  -30.2683   -2.1852   30.2487 N   0  0  0  0  0  0  0  0  0  0  0  0
  -28.9716   -3.9723   30.3919 O   0  0  0  0  0  0  0  0  0  0  0  0
  -31.4013   -2.6317   30.5959 C   0  0  0  0  0  0  0  0  0  0  0  0
  -31.7006   -3.4416   31.3340 C   0  0  0  0  0  0  0  0  0  0  0  0
  -32.3292   -2.5696   29.3667 C   0  0  0  0  0  0  0  0  0  0  0  0
  -32.3165   -1.6282   28.6173 O   0  0  0  0  0  0  0  0  0  0  0  0
  -32.9912   -3.6534   28.9822 O   0  0  0  0  0  0  0  0  0  0  0  0
  -32.0203   -2.9154   32.6743 C   0  0  0  0  0  0  0  0  0  0  0  0
  -32.0658   -1.5437   32.8532 C   0  0  0  0  0  0  0  0  0  0  0  0
  -32.0840   -0.6639   31.9530 C   0  0  0  0  0  0  0  0  0  0  0  0
  -32.0693    0.8022   32.3660 C   0  0  0  0  0  0  0  0  0  0  0  0
  -32.1495    1.0446   33.7035 C   0  0  0  0  0  0  0  0  0  0  0  0
  -32.1970    0.1001   34.6425 C   0  0  0  0  0  0  0  0  0  0  0  0
  -32.1109   -1.2040   34.2860 C   0  0  0  0  0  0  0  0  0  0  0  0
  -32.0313    1.8162   31.2974 C   0  0  0  0  0  0  0  0  0  0  0  0
  -32.2737    2.9566   31.6166 C   0  0  0  0  0  0  0  0  0  0  0  0
  -32.3484    3.3683   33.0214 C   0  0  0  0  0  0  0  0  0  0  0  0
  -32.3025    2.4885   33.9927 C   0  0  0  0  0  0  0  0  0  0  0  0
  -32.4612    4.6964   33.2793 F   0  0  0  0  0  0  0  0  0  0  0  0
  -23.6827    3.4422   26.4433 Cl  0  0  0  0  0  0  0  0  0  0  0  0
  -32.2291    0.4669   36.0782 C   0  0  0  0  0  0  0  0  0  0  0  0
  -32.8732   -0.1310   36.8001 O   0  0  0  0  0  0  0  0  0  0  0  0
  3  4  1  0
 10 13  1  0
 13 14  1  0
 13 15  2  0
 14 16  1  0
 16 17  1  0
 16 18  1  0
 18 19  2  0
 18 20  1  0
 17 21  2  3
 21 22  1  0
 30 32  1  0
  6 33  1  0
 26 34  1  0
 34 35  2  0
 25 31  2  0
 31 30  1  0
 30 29  2  0
 29 28  1  0
 28 24  2  0
 22 23  2  0
 23 24  1  0
 24 25  1  0
 25 26  1  0
 26 27  2  0
 27 22  1  0
  1  2  2  0
  2  3  1  0
  3 12  2  0
 12 11  1  0
 11 10  2  0
 10  1  1  0
  4  5  2  0
  5  6  1  0
  6  7  2  0
  7  8  1  0
  8  9  2  0
  9  4  1  0
M  END

$$$$
