No_2362-gen_results/8p0m/2024-11-27-11-27-31/
     RDKit          3D

 22 24  0  0  0  0  0  0  0  0999 V2000
  -28.0162   -0.8135   28.8779 C   0  0  0  0  0  0  0  0  0  0  0  0
  -28.4690   -0.7850   29.8287 C   0  0  0  0  0  0  0  0  0  0  0  0
  -26.5042   -0.7777   28.8766 C   0  0  0  0  0  0  0  0  0  0  0  0
  -25.8103   -0.8531   30.1028 C   0  0  0  0  0  0  0  0  0  0  0  0
  -27.9906   -0.8916   31.2257 C   0  0  0  0  0  0  0  0  0  0  0  0
  -26.6042   -0.8676   31.2652 C   0  0  0  0  0  0  0  0  0  0  0  0
  -24.3894   -0.8049   30.1638 C   0  0  0  0  0  0  0  0  0  0  0  0
  -23.8172    0.4762   29.9117 C   0  0  0  0  0  0  0  0  0  0  0  0
  -22.5010    0.5449   29.4097 C   0  0  0  0  0  0  0  0  0  0  0  0
  -21.7696   -0.6524   29.2129 C   0  0  0  0  0  0  0  0  0  0  0  0
  -23.6939   -1.8206   29.2518 C   0  0  0  0  0  0  0  0  0  0  0  0
  -22.3030   -1.7892   29.1620 C   0  0  0  0  0  0  0  0  0  0  0  0
  -23.8764   -1.2295   31.6716 C   0  0  0  0  0  0  0  0  0  0  0  0
  -24.4271    1.7392   30.3631 C   0  0  0  0  0  0  0  0  0  0  0  0
  -24.5041    2.1460   31.5027 O   0  0  0  0  0  0  0  0  0  0  0  0
  -25.0474    2.4587   29.3673 N   0  0  0  0  0  0  0  0  0  0  0  0
  -25.8259    3.7303   29.6861 C   0  0  0  0  0  0  0  0  0  0  0  0
  -26.4846    3.8832   30.6493 C   0  0  0  0  0  0  0  0  0  0  0  0
  -27.2450    4.9620   30.7314 C   0  0  0  0  0  0  0  0  0  0  0  0
  -25.9516    4.5248   28.5694 C   0  0  0  0  0  0  0  0  0  0  0  0
  -26.6231    5.7065   28.6067 C   0  0  0  0  0  0  0  0  0  0  0  0
  -27.3359    5.9392   29.7778 C   0  0  0  0  0  0  0  0  0  0  0  0
  4  7  1  0
  7  8  1  0
  9 10  1  0
  7 11  1  0
 10 12  1  0
  7 13  1  0
  8 14  1  0
 14 15  2  0
 14 16  1  0
 16 17  1  0
  8  9  1  0
 12 11  1  0
 17 18  2  0
 18 19  1  0
 19 22  2  0
 22 21  1  0
 21 20  2  0
 20 17  1  0
  1  2  2  0
  2  5  1  0
  5  6  2  0
  6  4  1  0
  4  3  2  0
  3  1  1  0
M  END

$$$$
