No_2468-gen_results/8p0m/2024-11-27-11-27-31/
     RDKit          3D

 10 10  0  0  0  0  0  0  0  0999 V2000
  -28.0162   -0.8135   28.8779 C   0  0  0  0  0  0  0  0  0  0  0  0
  -27.0636   -0.1190   28.6079 C   0  0  0  0  0  0  0  0  0  0  0  0
  -25.7923   -0.4302   29.0761 C   0  0  0  0  0  0  0  0  0  0  0  0
  -25.5756   -1.5654   29.9363 C   0  0  0  0  0  0  0  0  0  0  0  0
  -26.7354   -2.3004   30.2173 C   0  0  0  0  0  0  0  0  0  0  0  0
  -27.9184   -1.9537   29.7629 C   0  0  0  0  0  0  0  0  0  0  0  0
  -28.9516   -2.8779   30.2436 C   0  0  0  0  0  0  0  0  0  0  0  0
  -28.7900   -4.0997   30.5296 N   0  0  0  0  0  0  0  0  0  0  0  0
  -30.3095   -2.3527   30.3740 C   0  0  0  0  0  0  0  0  0  0  0  0
  -31.3071   -3.2254   30.7135 C   0  0  0  0  0  0  0  0  0  0  0  0
  6  7  1  0
  7  8  2  0
  7  9  1  0
  9 10  1  0
  1  2  2  0
  2  3  1  0
  3  4  2  0
  4  5  1  0
  5  6  2  0
  6  1  1  0
M  END

$$$$
