No_2964-gen_results/8p0m/2024-11-27-11-27-31/
     RDKit          3D

 35 38  0  0  0  0  0  0  0  0999 V2000
  -28.0162   -0.8135   28.8779 C   0  0  0  0  0  0  0  0  0  0  0  0
  -27.0636   -0.1189   28.6079 C   0  0  0  0  0  0  0  0  0  0  0  0
  -25.7923   -0.4302   29.0761 C   0  0  0  0  0  0  0  0  0  0  0  0
  -25.5756   -1.5654   29.9363 C   0  0  0  0  0  0  0  0  0  0  0  0
  -26.7354   -2.3004   30.2173 C   0  0  0  0  0  0  0  0  0  0  0  0
  -27.9184   -1.9537   29.7629 C   0  0  0  0  0  0  0  0  0  0  0  0
  -27.1057    1.1023   27.7593 C   0  0  0  0  0  0  0  0  0  0  0  0
  -26.7157    2.2350   27.9945 C   0  0  0  0  0  0  0  0  0  0  0  0
  -26.6929    3.3459   27.0337 C   0  0  0  0  0  0  0  0  0  0  0  0
  -27.1962    3.0779   25.7437 C   0  0  0  0  0  0  0  0  0  0  0  0
  -27.5814    0.8882   26.3714 C   0  0  0  0  0  0  0  0  0  0  0  0
  -27.6132    1.8443   25.4645 C   0  0  0  0  0  0  0  0  0  0  0  0
  -29.0590   -2.7811   30.2183 C   0  0  0  0  0  0  0  0  0  0  0  0
  -29.4912   -2.5704   31.2392 N   0  0  0  0  0  0  0  0  0  0  0  0
  -30.5606   -2.2895   31.6941 C   0  0  0  0  0  0  0  0  0  0  0  0
  -30.9057   -2.0967   33.0847 C   0  0  0  0  0  0  0  0  0  0  0  0
  -31.2155   -1.5255   30.9250 F   0  0  0  0  0  0  0  0  0  0  0  0
  -30.7390   -3.1582   33.8188 C   0  0  0  0  0  0  0  0  0  0  0  0
  -30.5875   -4.3833   33.3728 C   0  0  0  0  0  0  0  0  0  0  0  0
  -30.2484   -5.5212   34.2718 C   0  0  0  0  0  0  0  0  0  0  0  0
  -30.0644   -5.2377   35.6143 C   0  0  0  0  0  0  0  0  0  0  0  0
  -30.1873   -3.9866   36.1146 C   0  0  0  0  0  0  0  0  0  0  0  0
  -30.4454   -2.9332   35.3167 C   0  0  0  0  0  0  0  0  0  0  0  0
  -29.2942   -3.8437   29.5815 O   0  0  0  0  0  0  0  0  0  0  0  0
  -28.2058    1.5196   23.9040 Cl  0  0  0  0  0  0  0  0  0  0  0  0
  -26.1542    4.6778   27.4284 C   0  0  0  0  0  0  0  0  0  0  0  0
  -25.4167    4.8115   28.5041 C   0  0  0  0  0  0  0  0  0  0  0  0
  -25.0323    6.1846   28.8876 C   0  0  0  0  0  0  0  0  0  0  0  0
  -25.2386    7.2307   27.9626 C   0  0  0  0  0  0  0  0  0  0  0  0
  -25.8395    7.0016   26.7557 C   0  0  0  0  0  0  0  0  0  0  0  0
  -26.3004    5.7403   26.5221 C   0  0  0  0  0  0  0  0  0  0  0  0
  -24.6960    8.5601   28.3754 C   0  0  0  0  0  0  0  0  0  0  0  0
  -23.5099    8.6725   28.0886 F   0  0  0  0  0  0  0  0  0  0  0  0
  -24.8387    8.6849   29.7504 F   0  0  0  0  0  0  0  0  0  0  0  0
  -25.3760    9.5038   27.7469 F   0  0  0  0  0  0  0  0  0  0  0  0
  2  7  1  0
  6 13  1  0
 13 14  1  0
 14 15  1  0
 15 16  2  3
 15 17  1  0
 16 18  1  0
 13 24  2  0
 12 25  1  0
  9 26  1  0
 29 32  1  0
 32 33  1  0
 32 34  1  0
 32 35  1  0
  7  8  2  0
  8  9  1  0
  9 10  2  0
 10 12  1  0
 12 11  2  0
 11  7  1  0
  1  2  2  0
  2  3  1  0
  3  4  2  0
  4  5  1  0
  5  6  2  0
  6  1  1  0
 18 19  2  0
 19 20  1  0
 20 21  2  0
 21 22  1  0
 22 23  2  0
 23 18  1  0
 26 27  2  0
 27 28  1  0
 28 29  2  0
 29 30  1  0
 30 31  2  0
 31 26  1  0
M  END

$$$$
