No_2115-gen_results/8p0m/2024-11-27-11-27-31/
     RDKit          3D

 13 13  0  0  0  0  0  0  0  0999 V2000
  -28.0162   -0.8135   28.8779 C   0  0  0  0  0  0  0  0  0  0  0  0
  -28.4690   -0.7850   29.8287 C   0  0  0  0  0  0  0  0  0  0  0  0
  -28.1816    0.4277   28.1134 C   0  0  0  0  0  0  0  0  0  0  0  0
  -28.9841    1.4155   28.5154 C   0  0  0  0  0  0  0  0  0  0  0  0
  -29.3802    0.1384   30.4612 C   0  0  0  0  0  0  0  0  0  0  0  0
  -29.5415    1.2736   29.7242 C   0  0  0  0  0  0  0  0  0  0  0  0
  -27.4586    0.4934   26.7701 C   0  0  0  0  0  0  0  0  0  0  0  0
  -26.1290    0.3456   26.7317 N   0  0  0  0  0  0  0  0  0  0  0  0
  -25.2521    1.1879   27.3425 C   0  0  0  0  0  0  0  0  0  0  0  0
  -24.3975    0.9580   28.3032 C   0  0  0  0  0  0  0  0  0  0  0  0
  -24.2649   -0.2954   28.9497 C   0  0  0  0  0  0  0  0  0  0  0  0
  -23.3010   -0.4625   29.9369 C   0  0  0  0  0  0  0  0  0  0  0  0
  -22.3147    0.4537   30.0850 C   0  0  0  0  0  0  0  0  0  0  0  0
  3  7  1  0
  7  8  1  0
  8  9  1  0
  9 10  2  3
 10 11  1  0
 11 12  2  3
 12 13  1  0
  1  2  2  0
  2  5  1  0
  5  6  2  0
  6  4  1  0
  4  3  2  0
  3  1  1  0
M  END

$$$$
