No_2461-gen_results/8p0m/2024-11-27-11-27-31/
     RDKit          3D

 16 17  0  0  0  0  0  0  0  0999 V2000
  -28.0162   -0.8135   28.8779 C   0  0  0  0  0  0  0  0  0  0  0  0
  -28.4690   -0.7850   29.8287 C   0  0  0  0  0  0  0  0  0  0  0  0
  -27.1356    0.2359   28.5352 C   0  0  0  0  0  0  0  0  0  0  0  0
  -26.8745    1.2825   29.3982 C   0  0  0  0  0  0  0  0  0  0  0  0
  -25.9742    2.3797   29.0831 C   0  0  0  0  0  0  0  0  0  0  0  0
  -28.3915    0.1302   30.9603 C   0  0  0  0  0  0  0  0  0  0  0  0
  -27.5035    1.2424   30.6700 C   0  0  0  0  0  0  0  0  0  0  0  0
  -25.3582    2.9659   29.8272 C   0  0  0  0  0  0  0  0  0  0  0  0
  -25.9208    2.7194   27.6546 C   0  0  0  0  0  0  0  0  0  0  0  0
  -24.9873    3.7419   27.2573 C   0  0  0  0  0  0  0  0  0  0  0  0
  -24.4145    4.1407   29.5336 C   0  0  0  0  0  0  0  0  0  0  0  0
  -24.2872    4.4734   28.1913 C   0  0  0  0  0  0  0  0  0  0  0  0
  -26.5149    0.2280   27.3304 F   0  0  0  0  0  0  0  0  0  0  0  0
  -29.4272   -2.0294   30.2867 C   0  0  0  0  0  0  0  0  0  0  0  0
  -29.8260   -2.0449   31.5293 O   0  0  0  0  0  0  0  0  0  0  0  0
  -29.5612   -2.9814   29.5767 O   0  0  0  0  0  0  0  0  0  0  0  0
  4  5  1  0
  3 13  1  0
  2 14  1  0
 14 15  1  0
 14 16  2  0
  1  2  2  0
  2  6  1  0
  6  7  2  0
  7  4  1  0
  4  3  2  0
  3  1  1  0
  5  8  2  0
  8 11  1  0
 11 12  2  0
 12 10  1  0
 10  9  2  0
  9  5  1  0
M  END

$$$$
