No_2296-gen_results/8p0m/2024-11-27-11-27-31/
     RDKit          3D

 16 17  0  0  0  0  0  0  0  0999 V2000
  -28.0162   -0.8135   28.8779 C   0  0  0  0  0  0  0  0  0  0  0  0
  -28.4690   -0.7850   29.8287 C   0  0  0  0  0  0  0  0  0  0  0  0
  -26.5455   -0.8762   28.8500 C   0  0  0  0  0  0  0  0  0  0  0  0
  -25.6825   -0.7773   27.6829 C   0  0  0  0  0  0  0  0  0  0  0  0
  -27.9181   -1.0034   31.1877 C   0  0  0  0  0  0  0  0  0  0  0  0
  -26.5308   -1.0794   31.2463 C   0  0  0  0  0  0  0  0  0  0  0  0
  -25.7798   -1.0462   30.0905 C   0  0  0  0  0  0  0  0  0  0  0  0
  -25.2322    0.5793   27.3292 C   0  0  0  0  0  0  0  0  0  0  0  0
  -23.9816    0.8698   27.7676 C   0  0  0  0  0  0  0  0  0  0  0  0
  -23.3924    2.1065   27.3568 C   0  0  0  0  0  0  0  0  0  0  0  0
  -25.9572    1.4622   26.5788 C   0  0  0  0  0  0  0  0  0  0  0  0
  -25.4499    2.6487   26.1637 C   0  0  0  0  0  0  0  0  0  0  0  0
  -24.0922    3.0041   26.5793 C   0  0  0  0  0  0  0  0  0  0  0  0
  -24.3752   -1.2026   30.1595 C   0  0  0  0  0  0  0  0  0  0  0  0
  -23.6502   -2.2439   29.7879 C   0  0  0  0  0  0  0  0  0  0  0  0
  -23.6674   -0.2046   30.9548 C   0  0  0  0  0  0  0  0  0  0  0  0
  3  4  1  0
  4  8  1  0
  7 14  1  0
 14 15  2  0
 14 16  1  0
  8  9  2  0
  9 10  1  0
 10 13  2  0
 13 12  1  0
 12 11  2  0
 11  8  1  0
  1  2  2  0
  2  5  1  0
  5  6  2  0
  6  7  1  0
  7  3  2  0
  3  1  1  0
M  END

$$$$
