No_2092-gen_results/8p0m/2024-11-27-11-27-31/
     RDKit          3D

 19 21  0  0  0  0  0  0  0  0999 V2000
  -28.0162   -0.8135   28.8779 C   0  0  0  0  0  0  0  0  0  0  0  0
  -27.0636   -0.1189   28.6079 C   0  0  0  0  0  0  0  0  0  0  0  0
  -25.8176   -0.3427   29.0488 N   0  0  0  0  0  0  0  0  0  0  0  0
  -24.6757    0.3814   28.7496 C   0  0  0  0  0  0  0  0  0  0  0  0
  -23.3317    0.0231   29.2052 C   0  0  0  0  0  0  0  0  0  0  0  0
  -27.1812    0.9682   27.6388 C   0  0  0  0  0  0  0  0  0  0  0  0
  -26.0788    1.7596   27.1955 C   0  0  0  0  0  0  0  0  0  0  0  0
  -24.7013    1.4434   27.7655 C   0  0  0  0  0  0  0  0  0  0  0  0
  -22.2281    0.5794   28.6582 C   0  0  0  0  0  0  0  0  0  0  0  0
  -22.3428    1.6091   27.7199 C   0  0  0  0  0  0  0  0  0  0  0  0
  -23.5713    2.0932   27.2892 C   0  0  0  0  0  0  0  0  0  0  0  0
  -27.8992   -1.4643   30.2679 C   0  0  0  0  0  0  0  0  0  0  0  0
  -27.0211   -2.3920   30.3850 O   0  0  0  0  0  0  0  0  0  0  0  0
  -28.7645   -1.2827   31.2520 N   0  0  0  0  0  0  0  0  0  0  0  0
  -29.7897   -0.2658   31.2629 C   0  0  0  0  0  0  0  0  0  0  0  0
  -30.5477   -0.3267   32.3032 C   0  0  0  0  0  0  0  0  0  0  0  0
  -30.3834   -1.2591   33.2836 C   0  0  0  0  0  0  0  0  0  0  0  0
  -29.4281   -2.2274   33.2801 C   0  0  0  0  0  0  0  0  0  0  0  0
  -28.5516   -2.2559   32.2198 C   0  0  0  0  0  0  0  0  0  0  0  0
  1  2  1  0
  1 12  1  0
 12 13  2  0
 12 14  1  0
 14 15  1  0
 16 17  1  0
 14 19  1  0
 18 19  1  0
 15 16  1  0
 17 18  1  0
  2  3  2  0
  3  4  1  0
  8  7  1  0
  7  6  2  0
  6  2  1  0
  4  5  2  0
  5  9  1  0
  9 10  2  0
 10 11  1  0
 11  8  2  0
  8  4  1  0
M  END

$$$$
