No_2908-gen_results/8p0m/2024-11-27-11-27-31/
     RDKit          3D

 35 37  0  0  0  0  0  0  0  0999 V2000
  -28.0162   -0.8135   28.8779 C   0  0  0  0  0  0  0  0  0  0  0  0
  -27.0636   -0.1189   28.6079 C   0  0  0  0  0  0  0  0  0  0  0  0
  -25.7647   -0.3897   29.0360 C   0  0  0  0  0  0  0  0  0  0  0  0
  -24.5517    0.4058   28.7646 C   0  0  0  0  0  0  0  0  0  0  0  0
  -23.2300    0.1178   29.2575 C   0  0  0  0  0  0  0  0  0  0  0  0
  -23.0942   -1.1309   29.8730 C   0  0  0  0  0  0  0  0  0  0  0  0
  -27.7980   -1.9341   29.8560 C   0  0  0  0  0  0  0  0  0  0  0  0
  -26.5420   -2.3268   30.2580 C   0  0  0  0  0  0  0  0  0  0  0  0
  -25.4514   -1.5516   29.9079 C   0  0  0  0  0  0  0  0  0  0  0  0
  -24.1562   -1.9097   30.2809 C   0  0  0  0  0  0  0  0  0  0  0  0
  -24.6450    1.6582   27.9464 C   0  0  0  0  0  0  0  0  0  0  0  0
  -25.0764    1.5785   26.6992 C   0  0  0  0  0  0  0  0  0  0  0  0
  -24.3307    2.9033   28.6159 C   0  0  0  0  0  0  0  0  0  0  0  0
  -25.1758    3.5244   28.7641 O   0  0  0  0  0  0  0  0  0  0  0  0
  -25.8716    3.7839   29.9672 C   0  0  0  0  0  0  0  0  0  0  0  0
  -27.1756    4.1474   29.6833 C   0  0  0  0  0  0  0  0  0  0  0  0
  -27.6988    4.9729   30.4664 C   0  0  0  0  0  0  0  0  0  0  0  0
  -25.7681    2.5513   31.1138 Cl  0  0  0  0  0  0  0  0  0  0  0  0
  -26.9243    5.5825   31.4334 C   0  0  0  0  0  0  0  0  0  0  0  0
  -26.3911    6.4798   31.3010 C   0  0  0  0  0  0  0  0  0  0  0  0
  -26.2039    7.5347   31.2638 C   0  0  0  0  0  0  0  0  0  0  0  0
  -25.8970    8.4703   30.8043 C   0  0  0  0  0  0  0  0  0  0  0  0
  -24.4582    8.6853   30.4058 C   0  0  0  0  0  0  0  0  0  0  0  0
  -23.9643    9.7990   29.7719 C   0  0  0  0  0  0  0  0  0  0  0  0
  -22.6201    9.8278   29.3598 C   0  0  0  0  0  0  0  0  0  0  0  0
  -21.6255    9.3517   29.8537 C   0  0  0  0  0  0  0  0  0  0  0  0
  -20.3339    9.3921   29.2593 C   0  0  0  0  0  0  0  0  0  0  0  0
  -27.7502    3.5867   28.6841 O   0  0  0  0  0  0  0  0  0  0  0  0
  -28.6740    4.2535   27.9256 C   0  0  0  0  0  0  0  0  0  0  0  0
  -19.2035    9.6126   29.4241 C   0  0  0  0  0  0  0  0  0  0  0  0
  -18.1330    9.5486   28.5026 C   0  0  0  0  0  0  0  0  0  0  0  0
  -16.9620   10.3008   28.7743 C   0  0  0  0  0  0  0  0  0  0  0  0
  -16.6283   10.6686   30.0523 C   0  0  0  0  0  0  0  0  0  0  0  0
  -17.6087   10.6283   31.0311 C   0  0  0  0  0  0  0  0  0  0  0  0
  -18.8579   10.1784   30.7818 C   0  0  0  0  0  0  0  0  0  0  0  0
  4 11  1  0
 11 12  1  0
 11 13  1  0
 13 14  1  0
 14 15  1  0
 15 16  1  0
 16 17  2  3
 15 18  1  0
 17 19  1  0
 19 20  2  3
 20 21  1  0
 21 22  2  3
 22 23  1  0
 23 24  2  3
 24 25  1  0
 25 26  2  3
 26 27  1  0
 16 28  1  0
 28 29  1  0
 27 30  1  0
  1  2  2  0
  2  3  1  0
  9  8  1  0
  8  7  2  0
  7  1  1  0
 30 31  2  0
 31 32  1  0
 32 33  2  0
 33 34  1  0
 34 35  2  0
 35 30  1  0
  3  4  2  0
  4  5  1  0
  5  6  2  0
  6 10  1  0
 10  9  2  0
  9  3  1  0
M  END

$$$$
