No_257-gen_results/8p0m/2024-11-27-11-27-31/
     RDKit          3D

 10 11  0  0  0  0  0  0  0  0999 V2000
  -28.0162   -0.8135   28.8779 C   0  0  0  0  0  0  0  0  0  0  0  0
  -28.4690   -0.7850   29.8287 C   0  0  0  0  0  0  0  0  0  0  0  0
  -27.1356    0.2359   28.5352 C   0  0  0  0  0  0  0  0  0  0  0  0
  -26.8745    1.2825   29.3982 C   0  0  0  0  0  0  0  0  0  0  0  0
  -28.3426    0.0691   30.8236 C   0  0  0  0  0  0  0  0  0  0  0  0
  -27.5245    1.1625   30.6420 C   0  0  0  0  0  0  0  0  0  0  0  0
  -26.3562    0.5336   27.2490 C   0  0  0  0  0  0  0  0  0  0  0  0
  -25.2052    0.8427   27.1731 C   0  0  0  0  0  0  0  0  0  0  0  0
  -24.6982    1.7523   28.1846 C   0  0  0  0  0  0  0  0  0  0  0  0
  -25.5291    1.8552   29.3865 C   0  0  0  0  0  0  0  0  0  0  0  0
  4 10  2  0
 10  9  1  0
  9  8  2  0
  8  7  1  0
  7  3  2  0
  1  2  2  0
  2  5  1  0
  5  6  2  0
  6  4  1  0
  4  3  1  0
  3  1  1  0
M  END

$$$$
