No_2207-gen_results/8p0m/2024-11-27-11-27-31/
     RDKit          3D

 12 12  0  0  0  0  0  0  0  0999 V2000
  -28.1229   -1.3353   28.4874 O   0  0  0  0  0  0  0  0  0  0  0  0
  -27.4806   -0.4044   28.7094 C   0  0  0  0  0  0  0  0  0  0  0  0
  -27.1904    0.2460   29.5268 C   0  0  0  0  0  0  0  0  0  0  0  0
  -26.8475    0.1035   27.4393 O   0  0  0  0  0  0  0  0  0  0  0  0
  -26.2452    0.6449   30.2184 C   0  0  0  0  0  0  0  0  0  0  0  0
  -25.1092    1.0754   29.2696 C   0  0  0  0  0  0  0  0  0  0  0  0
  -25.0395    1.0915   27.9551 C   0  0  0  0  0  0  0  0  0  0  0  0
  -25.7912    0.4890   27.1246 C   0  0  0  0  0  0  0  0  0  0  0  0
  -23.7055    1.6527   27.4499 C   0  0  0  0  0  0  0  0  0  0  0  0
  -22.7470    0.9763   27.6002 F   0  0  0  0  0  0  0  0  0  0  0  0
  -23.4377    2.9367   28.0521 F   0  0  0  0  0  0  0  0  0  0  0  0
  -23.8519    2.0732   26.1453 F   0  0  0  0  0  0  0  0  0  0  0  0
  1  2  2  0
  2  3  1  0
  2  4  1  0
  3  5  2  0
  5  6  1  0
  6  7  2  0
  4  8  1  0
  7  8  1  0
  7  9  1  0
  9 10  1  0
  9 11  1  0
  9 12  1  0
M  END

$$$$
