No_2416-gen_results/8p0m/2024-11-27-11-27-31/
     RDKit          3D

 18 19  0  0  0  0  0  0  0  0999 V2000
  -28.0162   -0.8135   28.8779 C   0  0  0  0  0  0  0  0  0  0  0  0
  -27.0636   -0.1189   28.6079 C   0  0  0  0  0  0  0  0  0  0  0  0
  -26.9287    1.1713   29.0083 C   0  0  0  0  0  0  0  0  0  0  0  0
  -25.7702    2.0341   28.6884 C   0  0  0  0  0  0  0  0  0  0  0  0
  -24.7141    1.4431   27.9188 C   0  0  0  0  0  0  0  0  0  0  0  0
  -24.8590    0.0783   27.5836 C   0  0  0  0  0  0  0  0  0  0  0  0
  -25.9647   -0.6606   27.9164 C   0  0  0  0  0  0  0  0  0  0  0  0
  -28.6995   -0.6441   30.0766 N   0  0  0  0  0  0  0  0  0  0  0  0
  -29.4717   -1.1161   30.6970 C   0  0  0  0  0  0  0  0  0  0  0  0
  -30.0670   -2.3591   30.2418 C   0  0  0  0  0  0  0  0  0  0  0  0
  -30.2683   -3.3376   31.1144 C   0  0  0  0  0  0  0  0  0  0  0  0
  -30.6405   -4.6320   30.6063 C   0  0  0  0  0  0  0  0  0  0  0  0
  -30.9519   -4.7962   29.2852 C   0  0  0  0  0  0  0  0  0  0  0  0
  -30.9406   -3.6943   28.4868 C   0  0  0  0  0  0  0  0  0  0  0  0
  -30.4365   -2.4843   28.9544 C   0  0  0  0  0  0  0  0  0  0  0  0
  -23.5273    2.1410   27.5637 C   0  0  0  0  0  0  0  0  0  0  0  0
  -22.3978    2.1988   27.9840 N   0  0  0  0  0  0  0  0  0  0  0  0
  -23.7221    2.8468   26.2085 C   0  0  0  0  0  0  0  0  0  0  0  0
  1  2  1  0
  1  8  1  0
  8  9  2  3
  9 10  1  0
  5 16  1  0
 16 17  2  0
 16 18  1  0
  2  3  2  0
  3  4  1  0
  4  5  2  0
  5  6  1  0
  6  7  2  0
  7  2  1  0
 10 11  2  0
 11 12  1  0
 12 13  2  0
 13 14  1  0
 14 15  2  0
 15 10  1  0
M  END

$$$$
