No_2690-gen_results/8p0m/2024-11-27-11-27-31/
     RDKit          3D

 10 10  0  0  0  0  0  0  0  0999 V2000
  -28.0162   -0.8135   28.8779 C   0  0  0  0  0  0  0  0  0  0  0  0
  -28.4690   -0.7850   29.8287 C   0  0  0  0  0  0  0  0  0  0  0  0
  -26.3597   -1.1928   28.7735 Cl  0  0  0  0  0  0  0  0  0  0  0  0
  -29.8497   -0.3789   29.9529 C   0  0  0  0  0  0  0  0  0  0  0  0
  -30.4691    0.0239   28.7575 C   0  0  0  0  0  0  0  0  0  0  0  0
  -29.7242    0.0555   27.6385 C   0  0  0  0  0  0  0  0  0  0  0  0
  -28.4282   -0.3029   27.6513 C   0  0  0  0  0  0  0  0  0  0  0  0
  -30.2781    0.4827   26.3076 C   0  0  0  0  0  0  0  0  0  0  0  0
  -30.4294    1.6126   26.0980 O   0  0  0  0  0  0  0  0  0  0  0  0
  -30.2401   -0.4334   25.3297 O   0  0  0  0  0  0  0  0  0  0  0  0
  1  3  1  0
  6  8  1  0
  8  9  2  0
  8 10  1  0
  1  2  2  0
  2  4  1  0
  4  5  2  0
  5  6  1  0
  6  7  2  0
  7  1  1  0
M  END

$$$$
