No_236-gen_results/8p0m/2024-11-27-11-27-31/
     RDKit          3D

 28 30  0  0  0  0  0  0  0  0999 V2000
  -28.0162   -0.8135   28.8779 C   0  0  0  0  0  0  0  0  0  0  0  0
  -27.0636   -0.1190   28.6079 C   0  0  0  0  0  0  0  0  0  0  0  0
  -26.9287    1.1713   29.0083 C   0  0  0  0  0  0  0  0  0  0  0  0
  -27.9560    1.7411   29.7840 C   0  0  0  0  0  0  0  0  0  0  0  0
  -29.0569   -0.3271   29.7466 C   0  0  0  0  0  0  0  0  0  0  0  0
  -28.9828    0.9722   30.1516 C   0  0  0  0  0  0  0  0  0  0  0  0
  -25.6042   -0.7936   27.5664 Br  0  0  0  0  0  0  0  0  0  0  0  0
  -30.0822    1.5155   31.0142 C   0  0  0  0  0  0  0  0  0  0  0  0
  -29.7422    2.4134   31.8753 C   0  0  0  0  0  0  0  0  0  0  0  0
  -28.5915    3.3157   31.4960 C   0  0  0  0  0  0  0  0  0  0  0  0
  -27.5882    2.9013   30.6447 C   0  0  0  0  0  0  0  0  0  0  0  0
  -26.4068    3.6843   30.3792 C   0  0  0  0  0  0  0  0  0  0  0  0
  -25.4261    3.2687   30.8258 F   0  0  0  0  0  0  0  0  0  0  0  0
  -26.5124    4.9451   30.9218 F   0  0  0  0  0  0  0  0  0  0  0  0
  -26.3302    3.9235   29.0499 F   0  0  0  0  0  0  0  0  0  0  0  0
  -30.1838   -1.2364   29.9833 C   0  0  0  0  0  0  0  0  0  0  0  0
  -31.0696   -1.2197   29.3841 O   0  0  0  0  0  0  0  0  0  0  0  0
  -29.9765   -2.1099   31.0783 N   0  0  0  0  0  0  0  0  0  0  0  0
  -30.9863   -3.1034   31.4176 C   0  0  0  0  0  0  0  0  0  0  0  0
  -29.4544   -1.5254   32.3666 C   0  0  0  0  0  0  0  0  0  0  0  0
  -29.8759    2.2774   33.2641 C   0  0  0  0  0  0  0  0  0  0  0  0
  -30.3341    3.1458   34.0079 C   0  0  0  0  0  0  0  0  0  0  0  0
  -30.7646    4.4253   33.4953 C   0  0  0  0  0  0  0  0  0  0  0  0
  -31.1506    5.4615   34.4058 C   0  0  0  0  0  0  0  0  0  0  0  0
  -31.4657    6.7306   33.8795 C   0  0  0  0  0  0  0  0  0  0  0  0
  -31.4407    6.9233   32.4893 C   0  0  0  0  0  0  0  0  0  0  0  0
  -31.0424    5.9030   31.6526 C   0  0  0  0  0  0  0  0  0  0  0  0
  -30.6727    4.7140   32.1741 C   0  0  0  0  0  0  0  0  0  0  0  0
  2  7  1  0
 11 12  1  0
 12 13  1  0
 12 14  1  0
 12 15  1  0
  5 16  1  0
 16 17  2  0
 16 18  1  0
 18 19  1  0
 18 20  1  0
  9 21  1  0
 21 22  2  3
 22 23  1  0
  6  8  1  0
  8  9  2  0
  9 10  1  0
 10 11  2  0
 11  4  1  0
 23 24  2  0
 24 25  1  0
 25 26  2  0
 26 27  1  0
 27 28  2  0
 28 23  1  0
  1  2  2  0
  2  3  1  0
  3  4  2  0
  4  6  1  0
  6  5  2  0
  5  1  1  0
M  END

$$$$
