No_2155-gen_results/8p0m/2024-11-27-11-27-31/
     RDKit          3D

 10  9  0  0  0  0  0  0  0  0999 V2000
  -28.0162   -0.8135   28.8779 C   0  0  0  0  0  0  0  0  0  0  0  0
  -27.0636   -0.1189   28.6079 C   0  0  0  0  0  0  0  0  0  0  0  0
  -25.8837   -0.5253   28.7835 F   0  0  0  0  0  0  0  0  0  0  0  0
  -27.0741    0.4865   27.1626 C   0  0  0  0  0  0  0  0  0  0  0  0
  -28.7055   -0.2946   30.1063 C   0  0  0  0  0  0  0  0  0  0  0  0
  -28.2760    0.6873   30.6088 N   0  0  0  0  0  0  0  0  0  0  0  0
  -25.8074    0.7474   26.5352 C   0  0  0  0  0  0  0  0  0  0  0  0
  -24.5953    0.3052   27.1703 C   0  0  0  0  0  0  0  0  0  0  0  0
  -24.7213   -0.3286   28.3635 C   0  0  0  0  0  0  0  0  0  0  0  0
  -23.6276   -0.8258   28.9359 F   0  0  0  0  0  0  0  0  0  0  0  0
  1  2  1  0
  2  3  1  0
  2  4  1  0
  1  5  1  0
  5  6  2  0
  4  7  2  3
  7  8  1  0
  8  9  1  0
  9 10  1  0
M  END

$$$$
