No_2534-gen_results/8p0m/2024-11-27-11-27-31/
     RDKit          3D

 15 16  0  0  0  0  0  0  0  0999 V2000
  -28.0162   -0.8135   28.8779 C   0  0  0  0  0  0  0  0  0  0  0  0
  -27.0636   -0.1189   28.6079 C   0  0  0  0  0  0  0  0  0  0  0  0
  -25.7647   -0.3897   29.0360 C   0  0  0  0  0  0  0  0  0  0  0  0
  -24.5516    0.4058   28.7646 C   0  0  0  0  0  0  0  0  0  0  0  0
  -24.6957    1.4480   27.7988 C   0  0  0  0  0  0  0  0  0  0  0  0
  -26.0010    1.6784   27.2965 C   0  0  0  0  0  0  0  0  0  0  0  0
  -27.0736    0.9682   27.6500 C   0  0  0  0  0  0  0  0  0  0  0  0
  -28.6424   -0.4818   30.1960 C   0  0  0  0  0  0  0  0  0  0  0  0
  -28.2929    0.5574   30.7802 C   0  0  0  0  0  0  0  0  0  0  0  0
  -28.6464    1.1231   31.8065 C   0  0  0  0  0  0  0  0  0  0  0  0
  -28.1545    2.3877   32.4291 C   0  0  0  0  0  0  0  0  0  0  0  0
  -27.0690    3.0106   31.7065 C   0  0  0  0  0  0  0  0  0  0  0  0
  -26.5495    2.3635   30.6122 C   0  0  0  0  0  0  0  0  0  0  0  0
  -27.0431    1.2567   30.1965 C   0  0  0  0  0  0  0  0  0  0  0  0
  -26.4347    0.9567   29.4483 F   0  0  0  0  0  0  0  0  0  0  0  0
  1  8  1  0
 14 15  1  0
  1  2  1  0
  8  9  1  0
  2  3  2  0
  3  4  1  0
  4  5  2  0
  5  6  1  0
  6  7  2  0
  7  2  1  0
  9 10  2  0
 10 11  1  0
 11 12  2  0
 12 13  1  0
 13 14  2  0
 14  9  1  0
M  END

$$$$
