No_2175-gen_results/8p0m/2024-11-27-11-27-31/
     RDKit          3D

 25 27  0  0  0  0  0  0  0  0999 V2000
  -28.0162   -0.8135   28.8779 C   0  0  0  0  0  0  0  0  0  0  0  0
  -28.4690   -0.7850   29.8287 C   0  0  0  0  0  0  0  0  0  0  0  0
  -26.5455   -0.8762   28.8500 C   0  0  0  0  0  0  0  0  0  0  0  0
  -25.8041   -1.0324   30.0571 C   0  0  0  0  0  0  0  0  0  0  0  0
  -26.5373   -1.0386   31.2171 C   0  0  0  0  0  0  0  0  0  0  0  0
  -27.8929   -0.9601   31.1743 C   0  0  0  0  0  0  0  0  0  0  0  0
  -25.7125   -0.8096   27.6257 C   0  0  0  0  0  0  0  0  0  0  0  0
  -25.2577    0.5491   27.2553 C   0  0  0  0  0  0  0  0  0  0  0  0
  -25.6475    1.0216   26.0450 C   0  0  0  0  0  0  0  0  0  0  0  0
  -24.4371    1.3429   28.0849 C   0  0  0  0  0  0  0  0  0  0  0  0
  -23.9581    2.5574   27.6046 C   0  0  0  0  0  0  0  0  0  0  0  0
  -26.5350    0.3048   25.1805 C   0  0  0  0  0  0  0  0  0  0  0  0
  -24.2650    2.9773   26.2836 C   0  0  0  0  0  0  0  0  0  0  0  0
  -25.1273    2.2284   25.5502 C   0  0  0  0  0  0  0  0  0  0  0  0
  -27.9450    0.5432   25.1727 C   0  0  0  0  0  0  0  0  0  0  0  0
  -28.4018    1.4902   26.0495 C   0  0  0  0  0  0  0  0  0  0  0  0
  -29.7803    1.7982   26.0941 C   0  0  0  0  0  0  0  0  0  0  0  0
  -30.6215    1.0797   25.2917 C   0  0  0  0  0  0  0  0  0  0  0  0
  -30.1333    0.1908   24.3189 C   0  0  0  0  0  0  0  0  0  0  0  0
  -28.7768   -0.0856   24.2789 C   0  0  0  0  0  0  0  0  0  0  0  0
  -26.0124   -0.6392   24.4485 O   0  0  0  0  0  0  0  0  0  0  0  0
  -30.0772   -0.6338   29.9246 C   0  0  0  0  0  0  0  0  0  0  0  0
  -30.5680   -1.6181   29.5128 F   0  0  0  0  0  0  0  0  0  0  0  0
  -30.4337    0.4524   29.1671 F   0  0  0  0  0  0  0  0  0  0  0  0
  -30.5263   -0.2948   31.1130 F   0  0  0  0  0  0  0  0  0  0  0  0
  3  7  1  0
  7  8  1  0
  9 12  1  0
 12 15  1  0
 12 21  2  0
  2 22  1  0
 22 23  1  0
 22 24  1  0
 22 25  1  0
 15 16  2  0
 16 17  1  0
 17 18  2  0
 18 19  1  0
 19 20  2  0
 20 15  1  0
  1  2  2  0
  2  6  1  0
  6  5  2  0
  5  4  1  0
  4  3  2  0
  3  1  1  0
  8  9  2  0
  9 14  1  0
 14 13  2  0
 13 11  1  0
 11 10  2  0
 10  8  1  0
M  END

$$$$
