No_2570-gen_results/8p0m/2024-11-27-11-27-31/
     RDKit          3D

 34 37  0  0  0  0  0  0  0  0999 V2000
  -28.0162   -0.8135   28.8779 C   0  0  0  0  0  0  0  0  0  0  0  0
  -27.0636   -0.1189   28.6079 C   0  0  0  0  0  0  0  0  0  0  0  0
  -26.8756    1.1325   28.9134 C   0  0  0  0  0  0  0  0  0  0  0  0
  -27.9014    1.8066   29.6436 C   0  0  0  0  0  0  0  0  0  0  0  0
  -29.0458   -0.2316   29.7181 C   0  0  0  0  0  0  0  0  0  0  0  0
  -28.9402    1.0517   30.0597 C   0  0  0  0  0  0  0  0  0  0  0  0
  -25.9551   -0.8906   27.8954 C   0  0  0  0  0  0  0  0  0  0  0  0
  -24.9276   -1.5314   28.8881 C   0  0  0  0  0  0  0  0  0  0  0  0
  -24.8527   -2.5657   29.0859 C   0  0  0  0  0  0  0  0  0  0  0  0
  -25.6325   -3.6383   28.4236 C   0  0  0  0  0  0  0  0  0  0  0  0
  -25.2749   -5.0148   28.9384 C   0  0  0  0  0  0  0  0  0  0  0  0
  -26.2052   -5.7687   29.2266 C   0  0  0  0  0  0  0  0  0  0  0  0
  -27.2214   -5.1698   29.9700 C   0  0  0  0  0  0  0  0  0  0  0  0
  -27.3329   -3.8694   30.4795 C   0  0  0  0  0  0  0  0  0  0  0  0
  -26.8170   -3.3335   29.3245 N   0  0  0  0  0  0  0  0  0  0  0  0
  -23.4419   -2.9911   29.5506 C   0  0  0  0  0  0  0  0  0  0  0  0
  -23.7979   -0.5336   29.0737 C   0  0  0  0  0  0  0  0  0  0  0  0
  -22.6335   -1.9411   29.6468 N   0  0  0  0  0  0  0  0  0  0  0  0
  -30.4178   -1.1657   30.1966 Cl  0  0  0  0  0  0  0  0  0  0  0  0
  -25.2662    0.1955   27.0127 C   0  0  0  0  0  0  0  0  0  0  0  0
  -24.4388    0.8993   27.0402 C   0  0  0  0  0  0  0  0  0  0  0  0
  -24.1144    1.9541   25.9644 C   0  0  0  0  0  0  0  0  0  0  0  0
  -26.0136    0.1834   25.6961 C   0  0  0  0  0  0  0  0  0  0  0  0
  -23.0159    2.8647   26.1810 C   0  0  0  0  0  0  0  0  0  0  0  0
  -24.9434    1.7478   24.9006 C   0  0  0  0  0  0  0  0  0  0  0  0
  -25.8654    0.8748   24.7667 C   0  0  0  0  0  0  0  0  0  0  0  0
  -27.7723    3.1390   30.0143 O   0  0  0  0  0  0  0  0  0  0  0  0
  -27.2333    4.1036   29.5651 C   0  0  0  0  0  0  0  0  0  0  0  0
  -27.6006    4.7489   28.4146 C   0  0  0  0  0  0  0  0  0  0  0  0
  -28.6219    4.5616   27.9028 C   0  0  0  0  0  0  0  0  0  0  0  0
  -28.9666    5.1862   26.5889 C   0  0  0  0  0  0  0  0  0  0  0  0
  -30.1085    4.8579   25.8828 C   0  0  0  0  0  0  0  0  0  0  0  0
  -30.9481    3.8763   26.3929 C   0  0  0  0  0  0  0  0  0  0  0  0
  -30.6649    3.2291   27.5669 C   0  0  0  0  0  0  0  0  0  0  0  0
  2  7  1  0
  7  8  1  0
  8  9  2  0
  9 10  1  0
  9 16  1  0
  8 17  1  0
 16 18  1  0
 17 18  1  0
  5 19  1  0
  7 20  1  0
  4 27  1  0
 27 28  1  0
 28 29  1  0
 29 30  2  3
 30 31  1  0
 31 32  2  3
 32 33  1  0
 33 34  2  0
 24 22  1  0
 20 21  2  0
 21 22  1  0
 22 25  2  0
 25 26  1  0
 26 23  2  0
 23 20  1  0
  1  2  2  0
  2  3  1  0
  3  4  2  0
  4  6  1  0
  6  5  2  0
  5  1  1  0
 10 11  2  0
 11 12  1  0
 12 13  2  0
 13 14  1  0
 14 15  2  0
 15 10  1  0
M  END

$$$$
