No_2312-gen_results/8p0m/2024-11-27-11-27-31/
     RDKit          3D

 11 11  0  0  0  0  0  0  0  0999 V2000
  -28.1229   -1.3353   28.4874 O   0  0  0  0  0  0  0  0  0  0  0  0
  -27.4806   -0.4044   28.7094 C   0  0  0  0  0  0  0  0  0  0  0  0
  -26.3804   -0.0867   27.9394 C   0  0  0  0  0  0  0  0  0  0  0  0
  -27.6664    0.4468   29.8988 N   0  0  0  0  0  0  0  0  0  0  0  0
  -26.4086    0.8567   26.8802 C   0  0  0  0  0  0  0  0  0  0  0  0
  -27.5818    1.4877   26.5909 C   0  0  0  0  0  0  0  0  0  0  0  0
  -27.5795    2.3020   25.4187 C   0  0  0  0  0  0  0  0  0  0  0  0
  -26.3512    2.4980   24.8101 C   0  0  0  0  0  0  0  0  0  0  0  0
  -25.2283    1.8873   25.2033 C   0  0  0  0  0  0  0  0  0  0  0  0
  -25.1619    1.0116   26.1838 C   0  0  0  0  0  0  0  0  0  0  0  0
  -28.7969    0.1711   30.7589 C   0  0  0  0  0  0  0  0  0  0  0  0
  1  2  2  0
  2  3  1  0
  2  4  1  0
  4 11  1  0
  3  5  1  0
  5  6  2  0
  6  7  1  0
  7  8  2  0
  8  9  1  0
  9 10  2  0
 10  5  1  0
M  END

$$$$
