No_2689-gen_results/8p0m/2024-11-27-11-27-31/
     RDKit          3D

 23 25  0  0  0  0  0  0  0  0999 V2000
  -28.0162   -0.8135   28.8779 C   0  0  0  0  0  0  0  0  0  0  0  0
  -27.0636   -0.1189   28.6079 C   0  0  0  0  0  0  0  0  0  0  0  0
  -25.8176   -0.3427   29.0488 N   0  0  0  0  0  0  0  0  0  0  0  0
  -25.5299   -1.0727   29.7130 C   0  0  0  0  0  0  0  0  0  0  0  0
  -26.4889   -2.0460   30.2459 C   0  0  0  0  0  0  0  0  0  0  0  0
  -27.7378   -1.8748   29.8309 C   0  0  0  0  0  0  0  0  0  0  0  0
  -28.8711   -2.6614   30.2852 C   0  0  0  0  0  0  0  0  0  0  0  0
  -29.0465   -2.7418   31.5708 O   0  0  0  0  0  0  0  0  0  0  0  0
  -29.3771   -3.4830   29.5506 F   0  0  0  0  0  0  0  0  0  0  0  0
  -27.2164    1.0056   27.6856 N   0  0  0  0  0  0  0  0  0  0  0  0
  -28.0813    1.0028   26.6849 C   0  0  0  0  0  0  0  0  0  0  0  0
  -28.9384    0.3466   26.4665 C   0  0  0  0  0  0  0  0  0  0  0  0
  -29.9164    0.4022   25.3848 C   0  0  0  0  0  0  0  0  0  0  0  0
  -29.5540    1.3534   24.4441 C   0  0  0  0  0  0  0  0  0  0  0  0
  -28.4627    2.2239   24.5780 C   0  0  0  0  0  0  0  0  0  0  0  0
  -27.7251    2.1073   25.7412 C   0  0  0  0  0  0  0  0  0  0  0  0
  -26.3622    2.1931   28.0065 C   0  0  0  0  0  0  0  0  0  0  0  0
  -25.1630    2.1676   27.9585 C   0  0  0  0  0  0  0  0  0  0  0  0
  -24.3907    3.1173   27.1360 C   0  0  0  0  0  0  0  0  0  0  0  0
  -25.1297    4.0112   26.3861 C   0  0  0  0  0  0  0  0  0  0  0  0
  -26.3732    4.4169   26.7500 C   0  0  0  0  0  0  0  0  0  0  0  0
  -27.0993    3.2892   27.3836 C   0  0  0  0  0  0  0  0  0  0  0  0
  -28.2814    3.2884   27.4018 O   0  0  0  0  0  0  0  0  0  0  0  0
  6  7  1  0
  7  8  2  0
  7  9  1  0
  2 10  1  0
 10 11  1  0
 10 17  1  0
 22 23  1  0
 11 12  2  0
 12 13  1  0
 13 14  2  0
 14 15  1  0
 15 16  2  0
 16 11  1  0
  1  2  2  0
  2  3  1  0
  3  4  2  0
  4  5  1  0
  5  6  2  0
  6  1  1  0
 17 18  2  0
 18 19  1  0
 19 20  2  0
 20 21  1  0
 21 22  2  0
 22 17  1  0
M  END

$$$$
