No_2215-gen_results/8p0m/2024-11-27-11-27-31/
     RDKit          3D

 19 20  0  0  0  0  0  0  0  0999 V2000
  -28.0162   -0.8135   28.8779 C   0  0  0  0  0  0  0  0  0  0  0  0
  -28.4690   -0.7850   29.8287 C   0  0  0  0  0  0  0  0  0  0  0  0
  -27.0871    0.2903   28.6377 C   0  0  0  0  0  0  0  0  0  0  0  0
  -26.0239    0.3644   29.2526 C   0  0  0  0  0  0  0  0  0  0  0  0
  -26.2460    0.4334   30.7986 C   0  0  0  0  0  0  0  0  0  0  0  0
  -29.4930   -1.6212   30.3207 N   0  0  0  0  0  0  0  0  0  0  0  0
  -27.4209   -0.8962   31.1902 C   0  0  0  0  0  0  0  0  0  0  0  0
  -30.7647   -1.3955   29.9297 C   0  0  0  0  0  0  0  0  0  0  0  0
  -30.8968   -0.3853   29.3066 O   0  0  0  0  0  0  0  0  0  0  0  0
  -31.7992   -2.3736   30.2430 C   0  0  0  0  0  0  0  0  0  0  0  0
  -29.2741   -2.9376   31.1222 C   0  0  0  0  0  0  0  0  0  0  0  0
  -31.7031   -3.4407   30.7478 O   0  0  0  0  0  0  0  0  0  0  0  0
  -32.9550   -2.1381   29.5605 O   0  0  0  0  0  0  0  0  0  0  0  0
  -25.1575    1.6557   29.0680 C   0  0  0  0  0  0  0  0  0  0  0  0
  -23.9655    1.3019   28.4929 C   0  0  0  0  0  0  0  0  0  0  0  0
  -23.1168    2.2423   27.8311 C   0  0  0  0  0  0  0  0  0  0  0  0
  -24.9678   -0.7928   29.0273 C   0  0  0  0  0  0  0  0  0  0  0  0
  -23.8244   -0.1673   28.3616 C   0  0  0  0  0  0  0  0  0  0  0  0
  -23.4610    3.3299   27.7019 O   0  0  0  0  0  0  0  0  0  0  0  0
  1  2  1  0
  1  3  1  0
  3  4  1  0
  4  5  1  0
  2  6  1  0
  2  7  1  0
  5  7  1  0
  6  8  1  0
  8  9  2  0
  8 10  1  0
  6 11  1  0
 10 12  2  0
 10 13  1  0
  4 14  1  0
 14 15  1  0
 15 16  2  0
  4 17  1  0
 15 18  1  0
 17 18  1  0
 16 19  2  0
M  END

$$$$
