No_2450-gen_results/8p0m/2024-11-27-11-27-31/
     RDKit          3D

 13 13  0  0  0  0  0  0  0  0999 V2000
  -28.0162   -0.8135   28.8779 C   0  0  0  0  0  0  0  0  0  0  0  0
  -28.4690   -0.7850   29.8287 C   0  0  0  0  0  0  0  0  0  0  0  0
  -28.1960    0.3478   28.0550 C   0  0  0  0  0  0  0  0  0  0  0  0
  -27.4421    0.5100   26.7946 C   0  0  0  0  0  0  0  0  0  0  0  0
  -26.1689   -0.0794   26.6787 C   0  0  0  0  0  0  0  0  0  0  0  0
  -25.7312   -0.9607   27.6875 C   0  0  0  0  0  0  0  0  0  0  0  0
  -26.5043   -1.2222   28.7582 C   0  0  0  0  0  0  0  0  0  0  0  0
  -29.6729   -0.4971   29.9081 F   0  0  0  0  0  0  0  0  0  0  0  0
  -27.8461   -0.4843   31.0469 O   0  0  0  0  0  0  0  0  0  0  0  0
  -25.2965    0.1960   25.5481 C   0  0  0  0  0  0  0  0  0  0  0  0
  -27.8420    1.4064   25.7203 C   0  0  0  0  0  0  0  0  0  0  0  0
  -28.1989    2.5736   26.0738 C   0  0  0  0  0  0  0  0  0  0  0  0
  -28.7241    0.6448   24.7776 C   0  0  0  0  0  0  0  0  0  0  0  0
  2  8  1  0
  2  9  1  0
  5 10  1  0
  4 11  1  0
 11 12  2  0
 11 13  1  0
  2  1  1  0
  1  3  2  0
  3  4  1  0
  4  5  2  0
  5  6  1  0
  6  7  2  0
  7  1  1  0
M  END

$$$$
