No_240-gen_results/8p0m/2024-11-27-11-27-31/
     RDKit          3D

 13 14  0  0  0  0  0  0  0  0999 V2000
  -28.0162   -0.8135   28.8779 C   0  0  0  0  0  0  0  0  0  0  0  0
  -27.0636   -0.1189   28.6079 C   0  0  0  0  0  0  0  0  0  0  0  0
  -25.7647   -0.3897   29.0360 C   0  0  0  0  0  0  0  0  0  0  0  0
  -24.5516    0.4058   28.7646 C   0  0  0  0  0  0  0  0  0  0  0  0
  -23.2300    0.1178   29.2575 C   0  0  0  0  0  0  0  0  0  0  0  0
  -23.0942   -1.1309   29.8730 C   0  0  0  0  0  0  0  0  0  0  0  0
  -27.7980   -1.9341   29.8560 C   0  0  0  0  0  0  0  0  0  0  0  0
  -26.5420   -2.3268   30.2580 C   0  0  0  0  0  0  0  0  0  0  0  0
  -25.4514   -1.5516   29.9079 C   0  0  0  0  0  0  0  0  0  0  0  0
  -24.1562   -1.9097   30.2809 C   0  0  0  0  0  0  0  0  0  0  0  0
  -24.6450    1.6582   27.9464 C   0  0  0  0  0  0  0  0  0  0  0  0
  -23.6699    2.0038   26.7134 Cl  0  0  0  0  0  0  0  0  0  0  0  0
  -25.5474    2.4978   28.2763 O   0  0  0  0  0  0  0  0  0  0  0  0
  4 11  1  0
 11 12  1  0
 11 13  2  0
  1  2  2  0
  2  3  1  0
  9  8  1  0
  8  7  2  0
  7  1  1  0
  3  4  2  0
  4  5  1  0
  5  6  2  0
  6 10  1  0
 10  9  2  0
  9  3  1  0
M  END

$$$$
