No_2008-gen_results/8p0m/2024-11-27-11-27-31/
     RDKit          3D

 14 15  0  0  0  0  0  0  0  0999 V2000
  -28.0162   -0.8135   28.8779 C   0  0  0  0  0  0  0  0  0  0  0  0
  -28.4690   -0.7850   29.8287 C   0  0  0  0  0  0  0  0  0  0  0  0
  -27.1356    0.2359   28.5352 C   0  0  0  0  0  0  0  0  0  0  0  0
  -26.8745    1.2825   29.3982 C   0  0  0  0  0  0  0  0  0  0  0  0
  -27.5070    1.2380   30.6295 C   0  0  0  0  0  0  0  0  0  0  0  0
  -28.3337    0.1762   30.9350 C   0  0  0  0  0  0  0  0  0  0  0  0
  -26.4102    0.2865   27.2166 C   0  0  0  0  0  0  0  0  0  0  0  0
  -25.6264    0.6732   26.6618 C   0  0  0  0  0  0  0  0  0  0  0  0
  -24.4470    1.3633   27.1470 C   0  0  0  0  0  0  0  0  0  0  0  0
  -23.4862    2.0521   26.3525 C   0  0  0  0  0  0  0  0  0  0  0  0
  -22.4015    2.7325   26.9030 C   0  0  0  0  0  0  0  0  0  0  0  0
  -21.9796    2.1543   28.1227 C   0  0  0  0  0  0  0  0  0  0  0  0
  -23.7168    1.0292   28.3595 C   0  0  0  0  0  0  0  0  0  0  0  0
  -22.6043    1.4011   28.8229 C   0  0  0  0  0  0  0  0  0  0  0  0
  3  7  1  0
  7  8  3  0
  8  9  1  0
  1  2  2  0
  2  6  1  0
  6  5  2  0
  5  4  1  0
  4  3  2  0
  3  1  1  0
  9 10  2  0
 10 11  1  0
 11 12  2  0
 12 14  1  0
 14 13  2  0
 13  9  1  0
M  END

$$$$
