No_2940-gen_results/8p0m/2024-11-27-11-27-31/
     RDKit          3D

 35 36  0  0  0  0  0  0  0  0999 V2000
  -28.0162   -0.8135   28.8779 C   0  0  0  0  0  0  0  0  0  0  0  0
  -28.4690   -0.7850   29.8287 C   0  0  0  0  0  0  0  0  0  0  0  0
  -26.5455   -0.8762   28.8500 C   0  0  0  0  0  0  0  0  0  0  0  0
  -25.8041   -1.0324   30.0571 C   0  0  0  0  0  0  0  0  0  0  0  0
  -26.5373   -1.0386   31.2171 C   0  0  0  0  0  0  0  0  0  0  0  0
  -27.8843   -0.9532   31.1862 C   0  0  0  0  0  0  0  0  0  0  0  0
  -24.4749   -1.0818   30.0376 O   0  0  0  0  0  0  0  0  0  0  0  0
  -23.7126   -0.5649   30.8578 C   0  0  0  0  0  0  0  0  0  0  0  0
  -30.3083   -0.8167   30.0152 Cl  0  0  0  0  0  0  0  0  0  0  0  0
  -23.0433    0.7142   30.4007 C   0  0  0  0  0  0  0  0  0  0  0  0
  -22.8145    0.7095   29.0680 C   0  0  0  0  0  0  0  0  0  0  0  0
  -23.0255    2.0048   28.4024 C   0  0  0  0  0  0  0  0  0  0  0  0
  -24.1743    2.0266   27.4453 C   0  0  0  0  0  0  0  0  0  0  0  0
  -25.5203    2.5972   27.8406 Cl  0  0  0  0  0  0  0  0  0  0  0  0
  -23.6751    2.6668   26.1852 N   0  0  0  0  0  0  0  0  0  0  0  0
  -25.8182   -0.8418   27.6791 O   0  0  0  0  0  0  0  0  0  0  0  0
  -23.0750    1.9206   25.2595 C   0  0  0  0  0  0  0  0  0  0  0  0
  -24.0326    3.9602   25.9223 C   0  0  0  0  0  0  0  0  0  0  0  0
  -28.8105   -1.0221   32.6465 Cl  0  0  0  0  0  0  0  0  0  0  0  0
  -21.3968    0.3654   28.9179 O   0  0  0  0  0  0  0  0  0  0  0  0
  -23.6144    1.8501   30.6663 O   0  0  0  0  0  0  0  0  0  0  0  0
  -24.8494    2.0110   31.4866 C   0  0  0  0  0  0  0  0  0  0  0  0
  -25.1637    3.4291   31.7798 C   0  0  0  0  0  0  0  0  0  0  0  0
  -26.2868    3.5647   32.6672 C   0  0  0  0  0  0  0  0  0  0  0  0
  -26.8387    2.3515   33.0999 C   0  0  0  0  0  0  0  0  0  0  0  0
  -28.0249    2.5655   33.8975 C   0  0  0  0  0  0  0  0  0  0  0  0
  -28.5872    1.4975   34.5591 C   0  0  0  0  0  0  0  0  0  0  0  0
  -28.6683    3.8192   33.9634 C   0  0  0  0  0  0  0  0  0  0  0  0
  -28.0906    4.9802   33.4171 C   0  0  0  0  0  0  0  0  0  0  0  0
  -27.0203    4.7808   32.4390 C   0  0  0  0  0  0  0  0  0  0  0  0
  -27.8851    0.7034   35.4027 N   0  0  0  0  0  0  0  0  0  0  0  0
  -28.3749   -0.3904   36.0012 C   0  0  0  0  0  0  0  0  0  0  0  0
  -27.3988   -1.2533   36.5868 C   0  0  0  0  0  0  0  0  0  0  0  0
  -26.3565   -1.2575   36.2326 C   0  0  0  0  0  0  0  0  0  0  0  0
  -25.6405   -0.3073   35.4020 C   0  0  0  0  0  0  0  0  0  0  0  0
  4  7  1  0
  7  8  1  0
  2  9  1  0
  8 10  1  0
 10 11  1  0
 11 12  1  0
 12 13  1  0
 13 14  1  0
 13 15  1  0
  3 16  1  0
 15 17  1  0
 15 18  1  0
  6 19  1  0
 11 20  1  0
 10 21  1  0
 21 22  1  0
 22 23  1  0
 23 24  1  0
 26 27  1  0
 27 31  1  0
 31 32  1  0
 32 33  2  3
 33 34  1  0
 34 35  2  0
  1  2  2  0
  2  6  1  0
  6  5  2  0
  5  4  1  0
  4  3  2  0
  3  1  1  0
 24 25  2  0
 25 26  1  0
 26 28  2  0
 28 29  1  0
 29 30  2  0
 30 24  1  0
M  END

$$$$
