No_2112-gen_results/8p0m/2024-11-27-11-27-31/
     RDKit          3D

 24 26  0  0  0  0  0  0  0  0999 V2000
  -28.1229   -1.3353   28.4874 O   0  0  0  0  0  0  0  0  0  0  0  0
  -27.0637   -0.8242   28.8687 C   0  0  0  0  0  0  0  0  0  0  0  0
  -26.9592    0.0926   29.7582 C   0  0  0  0  0  0  0  0  0  0  0  0
  -25.8012   -1.3566   28.3971 N   0  0  0  0  0  0  0  0  0  0  0  0
  -27.8641    0.8180   30.2806 C   0  0  0  0  0  0  0  0  0  0  0  0
  -24.5359   -0.9360   28.7790 C   0  0  0  0  0  0  0  0  0  0  0  0
  -24.4578    0.1104   29.6230 C   0  0  0  0  0  0  0  0  0  0  0  0
  -25.5652    0.6748   30.1471 C   0  0  0  0  0  0  0  0  0  0  0  0
  -28.0905    1.1145   31.4185 C   0  0  0  0  0  0  0  0  0  0  0  0
  -29.2960    1.6868   32.0196 C   0  0  0  0  0  0  0  0  0  0  0  0
  -30.3558    1.8313   31.1054 C   0  0  0  0  0  0  0  0  0  0  0  0
  -30.2134    1.4262   29.8201 C   0  0  0  0  0  0  0  0  0  0  0  0
  -29.0319    0.8523   29.3558 C   0  0  0  0  0  0  0  0  0  0  0  0
  -23.0554    0.5116   30.0217 C   0  0  0  0  0  0  0  0  0  0  0  0
  -22.0144   -0.0837   29.4965 N   0  0  0  0  0  0  0  0  0  0  0  0
  -20.9675    0.5230   28.9608 C   0  0  0  0  0  0  0  0  0  0  0  0
  -21.9796   -1.5095   29.4551 C   0  0  0  0  0  0  0  0  0  0  0  0
  -23.5159   -1.6887   28.3814 N   0  0  0  0  0  0  0  0  0  0  0  0
  -23.6385   -3.1439   28.4667 C   0  0  0  0  0  0  0  0  0  0  0  0
  -21.2987   -1.7015   28.4640 C   0  0  0  0  0  0  0  0  0  0  0  0
  -20.1517   -0.6935   28.6165 C   0  0  0  0  0  0  0  0  0  0  0  0
  -23.3465   -1.1600   27.1073 C   0  0  0  0  0  0  0  0  0  0  0  0
  -22.4900   -1.4851   30.6588 O   0  0  0  0  0  0  0  0  0  0  0  0
  -31.5308    1.5889   28.7355 Cl  0  0  0  0  0  0  0  0  0  0  0  0
  1  2  2  0
  2  3  1  0
  2  4  1  0
  3  5  1  0
  6  7  1  0
  3  8  1  0
  7 14  1  0
 14 15  1  0
 15 16  1  0
 15 17  1  0
  6 18  1  0
 18 19  1  0
 17 20  1  0
 16 21  2  0
 20 21  1  0
 18 22  1  0
 17 23  1  0
 12 24  1  0
  8  7  1  0
  6  4  1  0
  5  9  2  0
  9 10  1  0
 10 11  2  0
 11 12  1  0
 12 13  2  0
 13  5  1  0
M  END

$$$$
