No_219-gen_results/8p0m/2024-11-27-11-27-31/
     RDKit          3D

 23 25  0  0  0  0  0  0  0  0999 V2000
  -28.0162   -0.8135   28.8779 C   0  0  0  0  0  0  0  0  0  0  0  0
  -28.4690   -0.7850   29.8287 C   0  0  0  0  0  0  0  0  0  0  0  0
  -26.5042   -0.7777   28.8766 C   0  0  0  0  0  0  0  0  0  0  0  0
  -25.6540   -0.6597   27.7191 C   0  0  0  0  0  0  0  0  0  0  0  0
  -27.9180   -0.9374   31.1824 C   0  0  0  0  0  0  0  0  0  0  0  0
  -26.5423   -0.9399   31.2606 C   0  0  0  0  0  0  0  0  0  0  0  0
  -25.7832   -0.8935   30.1201 C   0  0  0  0  0  0  0  0  0  0  0  0
  -25.2204    0.6866   27.3939 C   0  0  0  0  0  0  0  0  0  0  0  0
  -23.9014    0.8981   27.7598 C   0  0  0  0  0  0  0  0  0  0  0  0
  -23.3037    2.1844   27.3240 C   0  0  0  0  0  0  0  0  0  0  0  0
  -23.9961    3.0461   26.5443 C   0  0  0  0  0  0  0  0  0  0  0  0
  -25.8647    1.5294   26.5210 C   0  0  0  0  0  0  0  0  0  0  0  0
  -25.2723    2.6762   26.0966 C   0  0  0  0  0  0  0  0  0  0  0  0
  -30.0569   -0.7935   29.8592 C   0  0  0  0  0  0  0  0  0  0  0  0
  -30.5085   -0.2162   29.0221 O   0  0  0  0  0  0  0  0  0  0  0  0
  -30.6958   -1.7024   30.5916 O   0  0  0  0  0  0  0  0  0  0  0  0
  -23.1367    0.2029   28.5514 F   0  0  0  0  0  0  0  0  0  0  0  0
  -27.1518    1.1821   25.9235 C   0  0  0  0  0  0  0  0  0  0  0  0
  -28.1712    2.1643   26.1038 C   0  0  0  0  0  0  0  0  0  0  0  0
  -29.4860    1.8508   25.6128 C   0  0  0  0  0  0  0  0  0  0  0  0
  -29.7152    0.6201   25.0409 C   0  0  0  0  0  0  0  0  0  0  0  0
  -28.6845   -0.2982   24.8586 C   0  0  0  0  0  0  0  0  0  0  0  0
  -27.3957    0.0117   25.3376 C   0  0  0  0  0  0  0  0  0  0  0  0
  3  4  1  0
  4  8  1  0
  2 14  1  0
 14 15  2  0
 14 16  1  0
  9 17  1  0
 12 18  1  0
 18 19  2  0
 19 20  1  0
 20 21  2  0
 21 22  1  0
 22 23  2  0
 23 18  1  0
  1  2  2  0
  2  5  1  0
  5  6  2  0
  6  7  1  0
  7  3  2  0
  3  1  1  0
  8  9  2  0
  9 10  1  0
 10 11  2  0
 11 13  1  0
 13 12  2  0
 12  8  1  0
M  END

$$$$
