No_2006-gen_results/8p0m/2024-11-27-11-27-31/
     RDKit          3D

 33 37  0  0  0  0  0  0  0  0999 V2000
  -28.0162   -0.8135   28.8779 C   0  0  0  0  0  0  0  0  0  0  0  0
  -27.0636   -0.1190   28.6079 C   0  0  0  0  0  0  0  0  0  0  0  0
  -25.7923   -0.4302   29.0761 C   0  0  0  0  0  0  0  0  0  0  0  0
  -24.5456    0.3494   28.8225 C   0  0  0  0  0  0  0  0  0  0  0  0
  -23.2409    0.0217   29.3323 C   0  0  0  0  0  0  0  0  0  0  0  0
  -27.8820   -1.8995   29.8633 C   0  0  0  0  0  0  0  0  0  0  0  0
  -26.6526   -2.3142   30.3138 C   0  0  0  0  0  0  0  0  0  0  0  0
  -25.5153   -1.5607   29.9787 C   0  0  0  0  0  0  0  0  0  0  0  0
  -23.2072   -1.2289   30.0311 C   0  0  0  0  0  0  0  0  0  0  0  0
  -24.2434   -1.9361   30.3879 C   0  0  0  0  0  0  0  0  0  0  0  0
  -24.5886    1.5613   27.9544 C   0  0  0  0  0  0  0  0  0  0  0  0
  -24.8107    2.6834   28.5551 C   0  0  0  0  0  0  0  0  0  0  0  0
  -25.1287    3.8444   27.7787 C   0  0  0  0  0  0  0  0  0  0  0  0
  -24.4050    1.4363   26.6163 C   0  0  0  0  0  0  0  0  0  0  0  0
  -24.5474    2.5515   25.7815 C   0  0  0  0  0  0  0  0  0  0  0  0
  -24.8138    3.8081   26.3952 C   0  0  0  0  0  0  0  0  0  0  0  0
  -29.0008   -2.6402   30.1191 O   0  0  0  0  0  0  0  0  0  0  0  0
  -28.8818   -3.9157   30.5554 C   0  0  0  0  0  0  0  0  0  0  0  0
  -30.0971   -4.7160   30.2623 C   0  0  0  0  0  0  0  0  0  0  0  0
  -30.5498   -4.8153   29.1756 O   0  0  0  0  0  0  0  0  0  0  0  0
  -31.7322   -4.3790   28.8877 C   0  0  0  0  0  0  0  0  0  0  0  0
  -32.7194   -5.3595   28.7098 C   0  0  0  0  0  0  0  0  0  0  0  0
  -32.3343   -6.8399   29.1163 Cl  0  0  0  0  0  0  0  0  0  0  0  0
  -33.9446   -4.9452   29.4138 N   0  0  0  0  0  0  0  0  0  0  0  0
  -31.8872   -3.1636   28.5250 O   0  0  0  0  0  0  0  0  0  0  0  0
  -33.9692   -4.6354   30.5792 C   0  0  0  0  0  0  0  0  0  0  0  0
  -35.2723   -4.1987   31.1139 C   0  0  0  0  0  0  0  0  0  0  0  0
  -36.1749   -3.8216   30.7152 C   0  0  0  0  0  0  0  0  0  0  0  0
  -36.1210   -3.9919   29.1936 C   0  0  0  0  0  0  0  0  0  0  0  0
  -34.9938   -4.5551   28.5055 C   0  0  0  0  0  0  0  0  0  0  0  0
  -32.9200   -5.4293   27.1053 C   0  0  0  0  0  0  0  0  0  0  0  0
  -33.9511   -5.3841   26.6038 C   0  0  0  0  0  0  0  0  0  0  0  0
  -35.0497   -4.7455   27.2057 C   0  0  0  0  0  0  0  0  0  0  0  0
  4 11  1  0
  6 17  1  0
 17 18  1  0
 18 19  1  0
 19 20  1  0
 20 21  1  0
 21 22  1  0
 22 23  1  0
 22 24  1  0
 21 25  2  0
 24 26  1  0
 27 28  1  0
 24 30  1  0
 29 30  1  0
 22 31  1  0
 30 33  1  0
 32 33  1  0
 31 32  1  0
 26 27  1  0
 28 29  1  0
  3  4  2  0
  4  5  1  0
  5  9  2  0
  9 10  1  0
 10  8  2  0
  1  2  2  0
  2  3  1  0
  3  8  1  0
  8  7  1  0
  7  6  2  0
  6  1  1  0
 11 12  2  0
 12 13  1  0
 13 16  2  0
 16 15  1  0
 15 14  2  0
 14 11  1  0
M  END

$$$$
