No_273-gen_results/8p0m/2024-11-27-11-27-31/
     RDKit          3D

 19 20  0  0  0  0  0  0  0  0999 V2000
  -28.1493   -0.8198   28.9079 Cl  0  0  0  0  0  0  0  0  0  0  0  0
  -27.8339    0.4961   29.0598 C   0  0  0  0  0  0  0  0  0  0  0  0
  -27.7903    1.1418   28.0451 F   0  0  0  0  0  0  0  0  0  0  0  0
  -26.4542    0.6687   29.7268 C   0  0  0  0  0  0  0  0  0  0  0  0
  -28.8144    1.2222   29.9740 C   0  0  0  0  0  0  0  0  0  0  0  0
  -25.4064    0.3710   28.9897 C   0  0  0  0  0  0  0  0  0  0  0  0
  -24.2471   -0.2088   29.5010 C   0  0  0  0  0  0  0  0  0  0  0  0
  -24.1367   -0.6121   30.7288 C   0  0  0  0  0  0  0  0  0  0  0  0
  -25.2256   -0.2876   31.6250 C   0  0  0  0  0  0  0  0  0  0  0  0
  -26.3650    0.2289   31.0689 C   0  0  0  0  0  0  0  0  0  0  0  0
  -29.9825    1.4496   29.5072 C   0  0  0  0  0  0  0  0  0  0  0  0
  -30.9776    1.8430   30.3240 C   0  0  0  0  0  0  0  0  0  0  0  0
  -32.3279    2.0334   29.8360 C   0  0  0  0  0  0  0  0  0  0  0  0
  -32.5291    1.7888   28.4727 C   0  0  0  0  0  0  0  0  0  0  0  0
  -31.5275    1.3521   27.6492 C   0  0  0  0  0  0  0  0  0  0  0  0
  -30.3378    1.1749   28.1357 C   0  0  0  0  0  0  0  0  0  0  0  0
  -31.8433    1.0967   26.2190 C   0  0  0  0  0  0  0  0  0  0  0  0
  -31.1048    1.0931   25.3553 C   0  0  0  0  0  0  0  0  0  0  0  0
  -29.6913    1.4745   25.6914 C   0  0  0  0  0  0  0  0  0  0  0  0
  1  2  1  0
  2  3  1  0
  2  4  1  0
  2  5  1  0
  5 11  1  0
 15 17  1  0
 17 18  2  3
 18 19  1  0
 11 12  2  0
 12 13  1  0
 13 14  2  0
 14 15  1  0
 15 16  2  0
 16 11  1  0
  4  6  2  0
  6  7  1  0
  7  8  2  0
  8  9  1  0
  9 10  2  0
 10  4  1  0
M  END

$$$$
