No_2622-gen_results/8p0m/2024-11-27-11-27-31/
     RDKit          3D

 18 19  0  0  0  0  0  0  0  0999 V2000
  -28.0162   -0.8135   28.8779 C   0  0  0  0  0  0  0  0  0  0  0  0
  -28.4690   -0.7850   29.8287 C   0  0  0  0  0  0  0  0  0  0  0  0
  -28.1960    0.3478   28.0550 C   0  0  0  0  0  0  0  0  0  0  0  0
  -29.0191    1.3501   28.3782 C   0  0  0  0  0  0  0  0  0  0  0  0
  -29.4107    0.1803   30.3782 C   0  0  0  0  0  0  0  0  0  0  0  0
  -29.6059    1.2495   29.6193 C   0  0  0  0  0  0  0  0  0  0  0  0
  -27.4478    0.3799   26.7122 C   0  0  0  0  0  0  0  0  0  0  0  0
  -25.9806    0.2548   26.7837 C   0  0  0  0  0  0  0  0  0  0  0  0
  -25.3349   -0.0583   27.9448 C   0  0  0  0  0  0  0  0  0  0  0  0
  -24.5688    0.8997   28.6401 C   0  0  0  0  0  0  0  0  0  0  0  0
  -23.6523    0.4608   29.6156 C   0  0  0  0  0  0  0  0  0  0  0  0
  -23.6370   -0.8645   30.0750 C   0  0  0  0  0  0  0  0  0  0  0  0
  -25.0694   -1.4261   28.3903 C   0  0  0  0  0  0  0  0  0  0  0  0
  -24.2562   -1.8042   29.3621 C   0  0  0  0  0  0  0  0  0  0  0  0
  -25.3117    0.5242   25.5850 C   0  0  0  0  0  0  0  0  0  0  0  0
  -28.1734    0.5035   25.5986 C   0  0  0  0  0  0  0  0  0  0  0  0
  -29.3660    0.4051   25.4424 C   0  0  0  0  0  0  0  0  0  0  0  0
  -30.0099    0.4418   24.1847 C   0  0  0  0  0  0  0  0  0  0  0  0
  3  7  1  0
  7  8  1  0
  8  9  1  0
  8 15  1  0
  7 16  1  0
 16 17  2  3
 17 18  1  0
  1  2  2  0
  2  5  1  0
  5  6  2  0
  6  4  1  0
  4  3  2  0
  3  1  1  0
  9 10  2  0
 10 11  1  0
 11 12  2  0
 12 14  1  0
 14 13  2  0
 13  9  1  0
M  END

$$$$
