No_2413-gen_results/8p0m/2024-11-27-11-27-31/
     RDKit          3D

 21 22  0  0  0  0  0  0  0  0999 V2000
  -28.0162   -0.8135   28.8779 C   0  0  0  0  0  0  0  0  0  0  0  0
  -28.4690   -0.7850   29.8287 C   0  0  0  0  0  0  0  0  0  0  0  0
  -27.0871    0.2903   28.6377 C   0  0  0  0  0  0  0  0  0  0  0  0
  -26.8317    1.2487   29.5869 C   0  0  0  0  0  0  0  0  0  0  0  0
  -28.3914    0.0801   31.0065 C   0  0  0  0  0  0  0  0  0  0  0  0
  -27.4940    1.1521   30.7841 C   0  0  0  0  0  0  0  0  0  0  0  0
  -26.3172    0.3994   27.3653 C   0  0  0  0  0  0  0  0  0  0  0  0
  -24.9405    0.2550   27.5028 C   0  0  0  0  0  0  0  0  0  0  0  0
  -26.9129    0.5860   26.1397 C   0  0  0  0  0  0  0  0  0  0  0  0
  -26.1769    0.4192   24.9937 C   0  0  0  0  0  0  0  0  0  0  0  0
  -24.1284    0.4169   26.3366 C   0  0  0  0  0  0  0  0  0  0  0  0
  -24.7927    0.4341   25.0940 C   0  0  0  0  0  0  0  0  0  0  0  0
  -28.2126    0.4717   26.0506 F   0  0  0  0  0  0  0  0  0  0  0  0
  -24.2812    0.2694   28.5916 F   0  0  0  0  0  0  0  0  0  0  0  0
  -29.3869   -1.8798   30.1440 O   0  0  0  0  0  0  0  0  0  0  0  0
  -28.8996   -3.1225   30.5550 C   0  0  0  0  0  0  0  0  0  0  0  0
  -29.7684   -4.1933   30.2614 C   0  0  0  0  0  0  0  0  0  0  0  0
  -30.1459   -4.4789   29.2195 O   0  0  0  0  0  0  0  0  0  0  0  0
  -30.2802   -4.8658   31.3647 N   0  0  0  0  0  0  0  0  0  0  0  0
  -29.9728   -4.5410   32.7982 C   0  0  0  0  0  0  0  0  0  0  0  0
  -31.1504   -6.0152   31.1247 C   0  0  0  0  0  0  0  0  0  0  0  0
  3  7  1  0
  9 13  1  0
  8 14  1  0
  2 15  1  0
 15 16  1  0
 16 17  1  0
 17 18  2  0
 17 19  1  0
 19 20  1  0
 19 21  1  0
  7  8  2  0
  8 11  1  0
 11 12  2  0
 12 10  1  0
 10  9  2  0
  9  7  1  0
  1  2  2  0
  2  5  1  0
  5  6  2  0
  6  4  1  0
  4  3  2  0
  3  1  1  0
M  END

$$$$
