No_2120-gen_results/8p0m/2024-11-27-11-27-31/
     RDKit          3D

  9  9  0  0  0  0  0  0  0  0999 V2000
  -28.0544   -1.0498   28.7246 N   0  0  0  0  0  0  0  0  0  0  0  0
  -27.7460   -0.0733   29.0098 C   0  0  0  0  0  0  0  0  0  0  0  0
  -27.1071    0.7906   29.1050 C   0  0  0  0  0  0  0  0  0  0  0  0
  -26.1327    1.7993   29.1277 C   0  0  0  0  0  0  0  0  0  0  0  0
  -26.5640    2.8714   29.9537 C   0  0  0  0  0  0  0  0  0  0  0  0
  -25.9212    4.1339   29.7006 C   0  0  0  0  0  0  0  0  0  0  0  0
  -25.0945    4.2450   28.5559 C   0  0  0  0  0  0  0  0  0  0  0  0
  -24.7846    3.1762   27.7472 C   0  0  0  0  0  0  0  0  0  0  0  0
  -25.4213    2.0156   28.0174 C   0  0  0  0  0  0  0  0  0  0  0  0
  1  2  3  0
  2  3  1  0
  3  4  1  0
  4  5  2  0
  5  6  1  0
  6  7  2  0
  7  8  1  0
  8  9  2  0
  9  4  1  0
M  END

$$$$
