No_2331-gen_results/8p0m/2024-11-27-11-27-31/
     RDKit          3D

 26 28  0  0  0  0  0  0  0  0999 V2000
  -28.0162   -0.8135   28.8779 C   0  0  0  0  0  0  0  0  0  0  0  0
  -27.0636   -0.1190   28.6079 C   0  0  0  0  0  0  0  0  0  0  0  0
  -26.9287    1.1713   29.0083 C   0  0  0  0  0  0  0  0  0  0  0  0
  -25.7702    2.0341   28.6884 C   0  0  0  0  0  0  0  0  0  0  0  0
  -24.7141    1.4431   27.9188 C   0  0  0  0  0  0  0  0  0  0  0  0
  -24.8590    0.0783   27.5836 C   0  0  0  0  0  0  0  0  0  0  0  0
  -25.9647   -0.6606   27.9164 C   0  0  0  0  0  0  0  0  0  0  0  0
  -28.6510   -0.6086   30.2543 C   0  0  0  0  0  0  0  0  0  0  0  0
  -29.6513   -1.3216   30.5931 C   0  0  0  0  0  0  0  0  0  0  0  0
  -30.1116   -2.2865   29.9212 C   0  0  0  0  0  0  0  0  0  0  0  0
  -31.2447   -3.0583   30.4732 C   0  0  0  0  0  0  0  0  0  0  0  0
  -31.7096   -4.1685   29.7229 C   0  0  0  0  0  0  0  0  0  0  0  0
  -30.9708   -4.7291   28.7996 C   0  0  0  0  0  0  0  0  0  0  0  0
  -31.5573   -5.7373   28.0260 C   0  0  0  0  0  0  0  0  0  0  0  0
  -30.7677   -6.3367   26.9853 C   0  0  0  0  0  0  0  0  0  0  0  0
  -23.5371    2.1657   27.5628 C   0  0  0  0  0  0  0  0  0  0  0  0
  -22.7125    1.6886   27.1194 F   0  0  0  0  0  0  0  0  0  0  0  0
  -23.1093    2.8855   28.6998 F   0  0  0  0  0  0  0  0  0  0  0  0
  -23.9651    3.2432   26.7557 F   0  0  0  0  0  0  0  0  0  0  0  0
  -32.2563   -6.6794   28.8422 C   0  0  0  0  0  0  0  0  0  0  0  0
  -32.2333   -7.9228   28.4360 C   0  0  0  0  0  0  0  0  0  0  0  0
  -30.9357   -7.5597   26.5231 C   0  0  0  0  0  0  0  0  0  0  0  0
  -31.5942   -8.4335   27.2958 C   0  0  0  0  0  0  0  0  0  0  0  0
  -33.0743   -4.2014   29.4800 C   0  0  0  0  0  0  0  0  0  0  0  0
  -33.6880   -3.4195   29.2299 C   0  0  0  0  0  0  0  0  0  0  0  0
  -33.4625   -5.5725   29.2354 C   0  0  0  0  0  0  0  0  0  0  0  0
  1  2  1  0
  1  8  1  0
  8  9  1  0
  9 10  2  3
 10 11  1  0
  5 16  1  0
 16 17  1  0
 16 18  1  0
 16 19  1  0
 11 12  1  0
 25 24  1  0
 14 15  2  0
 15 22  1  0
 22 23  2  0
 23 21  1  0
 21 20  2  0
  2  3  2  0
  3  4  1  0
  4  5  2  0
  5  6  1  0
  6  7  2  0
  7  2  1  0
 12 13  2  0
 13 14  1  0
 14 20  1  0
 20 26  1  0
 26 24  2  0
 24 12  1  0
M  END

$$$$
