No_2616-gen_results/8p0m/2024-11-27-11-27-31/
     RDKit          3D

 22 24  0  0  0  0  0  0  0  0999 V2000
  -28.0162   -0.8135   28.8779 C   0  0  0  0  0  0  0  0  0  0  0  0
  -28.4690   -0.7850   29.8287 C   0  0  0  0  0  0  0  0  0  0  0  0
  -27.1356    0.2359   28.5352 C   0  0  0  0  0  0  0  0  0  0  0  0
  -26.8745    1.2825   29.3982 C   0  0  0  0  0  0  0  0  0  0  0  0
  -28.3613    0.1987   30.9244 C   0  0  0  0  0  0  0  0  0  0  0  0
  -27.5277    1.2234   30.6356 C   0  0  0  0  0  0  0  0  0  0  0  0
  -26.3987    0.2949   27.2279 C   0  0  0  0  0  0  0  0  0  0  0  0
  -26.9022    0.7280   26.2134 C   0  0  0  0  0  0  0  0  0  0  0  0
  -26.1747    0.6364   24.9259 C   0  0  0  0  0  0  0  0  0  0  0  0
  -25.0769   -0.2068   27.2393 C   0  0  0  0  0  0  0  0  0  0  0  0
  -24.4662   -0.6746   28.5690 C   0  0  0  0  0  0  0  0  0  0  0  0
  -24.8102    0.2419   24.9847 C   0  0  0  0  0  0  0  0  0  0  0  0
  -24.2910   -0.1013   26.1508 C   0  0  0  0  0  0  0  0  0  0  0  0
  -24.0779   -1.5860   29.1453 C   0  0  0  0  0  0  0  0  0  0  0  0
  -23.4398   -1.6086   30.4007 C   0  0  0  0  0  0  0  0  0  0  0  0
  -23.6699   -0.5468   31.2326 C   0  0  0  0  0  0  0  0  0  0  0  0
  -24.4548    0.5897   29.6144 C   0  0  0  0  0  0  0  0  0  0  0  0
  -23.9155    0.5738   30.7773 C   0  0  0  0  0  0  0  0  0  0  0  0
  -28.3361    1.1558   25.9830 C   0  0  0  0  0  0  0  0  0  0  0  0
  -28.6586    2.7664   26.3179 Cl  0  0  0  0  0  0  0  0  0  0  0  0
  -29.1094    0.5279   27.0284 F   0  0  0  0  0  0  0  0  0  0  0  0
  -28.8405    0.9172   24.7814 F   0  0  0  0  0  0  0  0  0  0  0  0
  3  7  1  0
 10 11  1  0
  8 19  1  0
 19 20  1  0
 19 21  1  0
 19 22  1  0
 11 14  2  0
 14 15  1  0
 15 16  2  0
 16 18  1  0
 18 17  2  0
 17 11  1  0
  7  8  2  0
  8  9  1  0
  9 12  2  0
 12 13  1  0
 13 10  2  0
 10  7  1  0
  1  2  2  0
  2  5  1  0
  5  6  2  0
  6  4  1  0
  4  3  2  0
  3  1  1  0
M  END

$$$$
