No_2050-gen_results/8p0m/2024-11-27-11-27-31/
     RDKit          3D

 35 37  0  0  0  0  0  0  0  0999 V2000
  -28.0162   -0.8135   28.8779 C   0  0  0  0  0  0  0  0  0  0  0  0
  -27.0636   -0.1190   28.6079 C   0  0  0  0  0  0  0  0  0  0  0  0
  -27.0010    0.6913   27.4910 C   0  0  0  0  0  0  0  0  0  0  0  0
  -28.1373    0.7363   26.6350 C   0  0  0  0  0  0  0  0  0  0  0  0
  -29.2360    0.0765   27.0690 C   0  0  0  0  0  0  0  0  0  0  0  0
  -29.2177   -0.6429   28.1747 C   0  0  0  0  0  0  0  0  0  0  0  0
  -30.6116    0.1653   26.0711 Cl  0  0  0  0  0  0  0  0  0  0  0  0
  -25.6201   -0.1214   29.2332 C   0  0  0  0  0  0  0  0  0  0  0  0
  -25.2685    0.5107   30.0676 C   0  0  0  0  0  0  0  0  0  0  0  0
  -23.9058    0.4548   30.6825 C   0  0  0  0  0  0  0  0  0  0  0  0
  -23.0475   -0.5085   30.1757 C   0  0  0  0  0  0  0  0  0  0  0  0
  -23.4698   -1.3348   29.1551 C   0  0  0  0  0  0  0  0  0  0  0  0
  -24.7586   -1.2217   28.6187 C   0  0  0  0  0  0  0  0  0  0  0  0
  -27.7982   -1.6087   30.0840 N   0  0  0  0  0  0  0  0  0  0  0  0
  -28.5726   -1.4675   31.2359 C   0  0  0  0  0  0  0  0  0  0  0  0
  -27.0972   -2.8604   30.0194 C   0  0  0  0  0  0  0  0  0  0  0  0
  -28.2640   -0.3882   32.0058 C   0  0  0  0  0  0  0  0  0  0  0  0
  -27.4476   -0.0587   32.5928 C   0  0  0  0  0  0  0  0  0  0  0  0
  -27.1413    1.1115   33.3888 C   0  0  0  0  0  0  0  0  0  0  0  0
  -28.1092    2.0793   33.4026 C   0  0  0  0  0  0  0  0  0  0  0  0
  -29.2866    1.8264   32.6778 C   0  0  0  0  0  0  0  0  0  0  0  0
  -29.4353    0.6871   31.9611 C   0  0  0  0  0  0  0  0  0  0  0  0
  -27.7735   -4.0788   30.2052 C   0  0  0  0  0  0  0  0  0  0  0  0
  -27.1092   -5.1174   30.1748 O   0  0  0  0  0  0  0  0  0  0  0  0
  -29.0283   -4.1002   30.3284 O   0  0  0  0  0  0  0  0  0  0  0  0
  -30.3543    2.8956   32.6267 C   0  0  0  0  0  0  0  0  0  0  0  0
  -31.3537    2.7823   32.0868 O   0  0  0  0  0  0  0  0  0  0  0  0
  -30.1071    4.0512   33.2880 O   0  0  0  0  0  0  0  0  0  0  0  0
  -29.7512   -5.2881   30.1792 C   0  0  0  0  0  0  0  0  0  0  0  0
  -30.8965   -5.0606   29.3075 C   0  0  0  0  0  0  0  0  0  0  0  0
  -31.1680   -4.0955   28.8679 O   0  0  0  0  0  0  0  0  0  0  0  0
  -31.5349   -6.2238   28.8389 N   0  0  0  0  0  0  0  0  0  0  0  0
  -32.2417   -6.4535   28.1106 C   0  0  0  0  0  0  0  0  0  0  0  0
  -32.6146   -5.8195   27.1058 C   0  0  0  0  0  0  0  0  0  0  0  0
  -32.1846   -4.5418   26.9777 C   0  0  0  0  0  0  0  0  0  0  0  0
  5  7  1  0
  2  8  1  0
  1 14  1  0
 14 15  1  0
 14 16  1  0
 15 17  1  0
 16 23  1  0
 23 24  2  0
 23 25  1  0
 21 26  1  0
 26 27  2  0
 26 28  1  0
 25 29  1  0
 29 30  1  0
 30 31  2  0
 30 32  1  0
 32 33  1  0
 33 34  1  0
 34 35  1  0
 17 18  2  0
 18 19  1  0
 19 20  2  0
 20 21  1  0
 21 22  2  0
 22 17  1  0
  1  2  1  0
  2  3  2  0
  3  4  1  0
  4  5  2  0
  5  6  1  0
  6  1  2  0
  8  9  2  0
  9 10  1  0
 10 11  2  0
 11 12  1  0
 12 13  2  0
 13  8  1  0
M  END

$$$$
