No_2614-gen_results/8p0m/2024-11-27-11-27-31/
     RDKit          3D

 25 27  0  0  0  0  0  0  0  0999 V2000
  -28.0162   -0.8135   28.8779 C   0  0  0  0  0  0  0  0  0  0  0  0
  -27.0636   -0.1189   28.6079 C   0  0  0  0  0  0  0  0  0  0  0  0
  -25.8176   -0.3427   29.0488 N   0  0  0  0  0  0  0  0  0  0  0  0
  -24.6757    0.3814   28.7496 C   0  0  0  0  0  0  0  0  0  0  0  0
  -24.7608    1.3095   27.7159 C   0  0  0  0  0  0  0  0  0  0  0  0
  -27.2322    1.1407   27.8970 C   0  0  0  0  0  0  0  0  0  0  0  0
  -23.5536    2.0551   27.3133 C   0  0  0  0  0  0  0  0  0  0  0  0
  -26.0346    1.8227   27.2856 C   0  0  0  0  0  0  0  0  0  0  0  0
  -28.5677   -0.7226   30.1685 N   0  0  0  0  0  0  0  0  0  0  0  0
  -23.1051    2.2520   25.7970 Cl  0  0  0  0  0  0  0  0  0  0  0  0
  -22.4585    2.1899   28.3100 C   0  0  0  0  0  0  0  0  0  0  0  0
  -29.4467   -1.5372   30.7177 C   0  0  0  0  0  0  0  0  0  0  0  0
  -29.8409   -1.3650   32.0727 C   0  0  0  0  0  0  0  0  0  0  0  0
  -28.1232    0.2701   31.1447 C   0  0  0  0  0  0  0  0  0  0  0  0
  -28.4897    0.4569   32.3441 C   0  0  0  0  0  0  0  0  0  0  0  0
  -29.3840   -0.3882   32.8934 C   0  0  0  0  0  0  0  0  0  0  0  0
  -23.6475   -0.1421   29.2937 F   0  0  0  0  0  0  0  0  0  0  0  0
  -28.2791    1.9887   28.1789 C   0  0  0  0  0  0  0  0  0  0  0  0
  -28.3543    2.8296   29.0566 O   0  0  0  0  0  0  0  0  0  0  0  0
  -29.3851    1.7167   27.3813 N   0  0  0  0  0  0  0  0  0  0  0  0
  -30.7045    2.4059   27.6276 C   0  0  0  0  0  0  0  0  0  0  0  0
  -29.4293    0.8052   26.2950 C   0  0  0  0  0  0  0  0  0  0  0  0
  -30.6720    0.3176   25.8711 C   0  0  0  0  0  0  0  0  0  0  0  0
  -31.6890    0.6631   26.3616 C   0  0  0  0  0  0  0  0  0  0  0  0
  -31.8259    1.8015   27.2485 C   0  0  0  0  0  0  0  0  0  0  0  0
  1  2  1  0
  5  7  1  0
  1  9  1  0
  7 10  1  0
  7 11  1  0
  9 12  1  0
  9 14  1  0
 13 16  1  0
 15 16  1  0
  4 17  1  0
  6 18  1  0
 18 19  2  0
 18 20  1  0
 20 21  1  0
 20 22  1  0
 23 24  1  0
 12 13  1  0
 15 14  1  0
 21 25  1  0
 25 24  1  0
 23 22  1  0
  2  3  2  0
  3  4  1  0
  4  5  2  0
  5  8  1  0
  8  6  2  0
  6  2  1  0
M  END

$$$$
