No_2575-gen_results/8p0m/2024-11-27-11-27-31/
     RDKit          3D

 35 39  0  0  0  0  0  0  0  0999 V2000
  -28.0162   -0.8135   28.8779 C   0  0  0  0  0  0  0  0  0  0  0  0
  -28.4690   -0.7850   29.8287 C   0  0  0  0  0  0  0  0  0  0  0  0
  -26.5455   -0.8762   28.8500 C   0  0  0  0  0  0  0  0  0  0  0  0
  -25.8041   -1.0324   30.0571 C   0  0  0  0  0  0  0  0  0  0  0  0
  -26.5373   -1.0386   31.2171 C   0  0  0  0  0  0  0  0  0  0  0  0
  -27.8929   -0.9601   31.1743 C   0  0  0  0  0  0  0  0  0  0  0  0
  -25.8001   -0.8259   27.7107 O   0  0  0  0  0  0  0  0  0  0  0  0
  -24.5257   -0.3180   27.8415 C   0  0  0  0  0  0  0  0  0  0  0  0
  -24.4303   -0.8817   30.2422 C   0  0  0  0  0  0  0  0  0  0  0  0
  -23.6713   -0.7790   28.8655 C   0  0  0  0  0  0  0  0  0  0  0  0
  -30.0702   -0.7918   29.8866 C   0  0  0  0  0  0  0  0  0  0  0  0
  -30.6774   -0.2561   30.8052 N   0  0  0  0  0  0  0  0  0  0  0  0
  -30.6084   -1.3219   28.8947 O   0  0  0  0  0  0  0  0  0  0  0  0
  -32.1500   -0.1781   30.8120 C   0  0  0  0  0  0  0  0  0  0  0  0
  -32.8584   -0.2203   30.0448 C   0  0  0  0  0  0  0  0  0  0  0  0
  -34.3041   -0.1098   30.0918 C   0  0  0  0  0  0  0  0  0  0  0  0
  -34.8064    0.1490   31.3943 C   0  0  0  0  0  0  0  0  0  0  0  0
  -33.9228    0.2335   32.4401 C   0  0  0  0  0  0  0  0  0  0  0  0
  -32.5415    0.1295   32.2672 C   0  0  0  0  0  0  0  0  0  0  0  0
  -36.2499    0.2836   31.5561 C   0  0  0  0  0  0  0  0  0  0  0  0
  -36.6894    0.7735   32.5500 O   0  0  0  0  0  0  0  0  0  0  0  0
  -36.9705   -0.1646   30.5728 O   0  0  0  0  0  0  0  0  0  0  0  0
  -22.2654   -0.5547   28.8586 C   0  0  0  0  0  0  0  0  0  0  0  0
  -21.4915   -1.3527   29.3797 C   0  0  0  0  0  0  0  0  0  0  0  0
  -21.8999    0.6171   28.0591 C   0  0  0  0  0  0  0  0  0  0  0  0
  -22.7340    1.6872   27.6251 C   0  0  0  0  0  0  0  0  0  0  0  0
  -24.1008    1.4699   27.5814 C   0  0  0  0  0  0  0  0  0  0  0  0
  -25.0378    2.1338   26.7776 C   0  0  0  0  0  0  0  0  0  0  0  0
  -26.1261    2.6491   27.5741 C   0  0  0  0  0  0  0  0  0  0  0  0
  -27.3042    3.0325   26.9756 C   0  0  0  0  0  0  0  0  0  0  0  0
  -27.4908    2.5410   25.7200 C   0  0  0  0  0  0  0  0  0  0  0  0
  -26.4993    1.8346   24.9906 C   0  0  0  0  0  0  0  0  0  0  0  0
  -25.4682    1.2280   25.8167 C   0  0  0  0  0  0  0  0  0  0  0  0
  -25.8397    3.2070   28.9555 C   0  0  0  0  0  0  0  0  0  0  0  0
  -26.8193    2.9104   29.9577 C   0  0  0  0  0  0  0  0  0  0  0  0
  1  2  2  0
  1  3  1  0
  3  4  1  0
  4  5  2  0
  2  6  1  0
  5  6  1  0
  3  7  1  0
  7  8  1  0
  4  9  1  0
  8 10  1  0
  9 10  2  0
  2 11  1  0
 11 12  1  0
 11 13  2  0
 12 14  1  0
 14 15  2  0
 15 16  1  0
 16 17  2  0
 17 18  1  0
 14 19  1  0
 18 19  2  0
 17 20  1  0
 20 21  2  0
 20 22  1  0
 10 23  1  0
 23 24  1  0
 23 25  1  0
 25 26  1  0
  8 27  1  0
 26 27  2  0
 27 28  1  0
 28 29  1  0
 29 30  1  0
 30 31  2  0
 31 32  1  0
 28 33  1  0
 32 33  1  0
 29 34  1  0
 34 35  1  0
M  END

$$$$
