No_2819-gen_results/8p0m/2024-11-27-11-27-31/
     RDKit          3D

 16 16  0  0  0  0  0  0  0  0999 V2000
  -28.1229   -1.3353   28.4874 O   0  0  0  0  0  0  0  0  0  0  0  0
  -28.5208   -0.4363   29.0779 C   0  0  0  0  0  0  0  0  0  0  0  0
  -27.6655    0.1129   30.0346 C   0  0  0  0  0  0  0  0  0  0  0  0
  -29.8108   -0.1163   29.1503 N   0  0  0  0  0  0  0  0  0  0  0  0
  -26.4692    0.6236   29.6641 C   0  0  0  0  0  0  0  0  0  0  0  0
  -26.3266    1.7137   28.9541 C   0  0  0  0  0  0  0  0  0  0  0  0
  -24.9912    2.1681   28.4673 C   0  0  0  0  0  0  0  0  0  0  0  0
  -23.8411    1.3805   28.7966 C   0  0  0  0  0  0  0  0  0  0  0  0
  -24.0304    0.2286   29.5296 C   0  0  0  0  0  0  0  0  0  0  0  0
  -25.2786   -0.1697   29.9688 C   0  0  0  0  0  0  0  0  0  0  0  0
  -30.6948   -0.1351   28.4644 C   0  0  0  0  0  0  0  0  0  0  0  0
  -32.0653    0.2248   28.6984 C   0  0  0  0  0  0  0  0  0  0  0  0
  -22.5220    1.8107   28.3562 C   0  0  0  0  0  0  0  0  0  0  0  0
  -21.5261    0.9266   28.4318 N   0  0  0  0  0  0  0  0  0  0  0  0
  -32.2642    0.7176   29.9617 C   0  0  0  0  0  0  0  0  0  0  0  0
  -31.3007    0.8059   30.8952 C   0  0  0  0  0  0  0  0  0  0  0  0
  1  2  2  0
  2  3  1  0
  2  4  1  0
  3  5  1  0
  4 11  2  3
 11 12  1  0
  8 13  1  0
 13 14  1  0
 12 15  2  3
 15 16  1  0
  5  6  2  0
  6  7  1  0
  7  8  2  0
  8  9  1  0
  9 10  2  0
 10  5  1  0
M  END

$$$$
