No_2441-gen_results/8p0m/2024-11-27-11-27-31/
     RDKit          3D

 27 29  0  0  0  0  0  0  0  0999 V2000
  -28.0162   -0.8135   28.8779 C   0  0  0  0  0  0  0  0  0  0  0  0
  -27.0636   -0.1190   28.6079 C   0  0  0  0  0  0  0  0  0  0  0  0
  -25.7923   -0.4302   29.0761 C   0  0  0  0  0  0  0  0  0  0  0  0
  -25.5756   -1.5654   29.9363 C   0  0  0  0  0  0  0  0  0  0  0  0
  -26.7354   -2.3004   30.2173 C   0  0  0  0  0  0  0  0  0  0  0  0
  -27.9184   -1.9537   29.7629 C   0  0  0  0  0  0  0  0  0  0  0  0
  -29.0001   -2.7012   30.1151 O   0  0  0  0  0  0  0  0  0  0  0  0
  -24.5290    0.3490   28.7998 C   0  0  0  0  0  0  0  0  0  0  0  0
  -24.4808    1.2113   27.7998 C   0  0  0  0  0  0  0  0  0  0  0  0
  -23.2478    1.8974   27.4951 C   0  0  0  0  0  0  0  0  0  0  0  0
  -22.0497    1.5890   28.1642 C   0  0  0  0  0  0  0  0  0  0  0  0
  -23.3072    0.0149   29.4618 C   0  0  0  0  0  0  0  0  0  0  0  0
  -22.0852    0.6899   29.1374 C   0  0  0  0  0  0  0  0  0  0  0  0
  -29.3635   -2.8123   31.4419 C   0  0  0  0  0  0  0  0  0  0  0  0
  -29.7833   -4.1212   31.7495 C   0  0  0  0  0  0  0  0  0  0  0  0
  -29.6791   -4.4316   32.9408 O   0  0  0  0  0  0  0  0  0  0  0  0
  -30.1114   -4.9950   30.8522 N   0  0  0  0  0  0  0  0  0  0  0  0
  -30.3339   -4.7129   29.4926 C   0  0  0  0  0  0  0  0  0  0  0  0
  -30.8294   -6.1854   31.3080 C   0  0  0  0  0  0  0  0  0  0  0  0
  -30.4339   -1.8695   31.7461 C   0  0  0  0  0  0  0  0  0  0  0  0
  -30.8277   -1.7222   32.9118 C   0  0  0  0  0  0  0  0  0  0  0  0
  -31.8245   -0.7145   33.2929 C   0  0  0  0  0  0  0  0  0  0  0  0
  -32.2425    0.1378   32.2869 C   0  0  0  0  0  0  0  0  0  0  0  0
  -31.7440    0.0299   30.9884 C   0  0  0  0  0  0  0  0  0  0  0  0
  -30.8034   -0.9056   30.7150 C   0  0  0  0  0  0  0  0  0  0  0  0
  -32.1913    0.9736   29.9705 C   0  0  0  0  0  0  0  0  0  0  0  0
  -31.6091    1.8836   29.7582 O   0  0  0  0  0  0  0  0  0  0  0  0
  6  7  1  0
  3  8  1  0
  7 14  1  0
 14 15  1  0
 15 16  2  0
 15 17  1  0
 17 18  1  0
 17 19  1  0
 14 20  1  0
 24 26  1  0
 26 27  2  0
  1  2  2  0
  2  3  1  0
  3  4  2  0
  4  5  1  0
  5  6  2  0
  6  1  1  0
 20 21  2  0
 21 22  1  0
 22 23  2  0
 23 24  1  0
 24 25  2  0
 25 20  1  0
  8  9  2  0
  9 10  1  0
 10 11  2  0
 11 13  1  0
 13 12  2  0
 12  8  1  0
M  END

$$$$
