No_2904-gen_results/8p0m/2024-11-27-11-27-31/
     RDKit          3D

 35 39  0  0  0  0  0  0  0  0999 V2000
  -28.0162   -0.8135   28.8779 C   0  0  0  0  0  0  0  0  0  0  0  0
  -27.0636   -0.1189   28.6079 C   0  0  0  0  0  0  0  0  0  0  0  0
  -25.7923   -0.4302   29.0761 C   0  0  0  0  0  0  0  0  0  0  0  0
  -24.5456    0.3494   28.8225 C   0  0  0  0  0  0  0  0  0  0  0  0
  -24.6586    1.4196   27.8878 C   0  0  0  0  0  0  0  0  0  0  0  0
  -23.5403    2.1791   27.5500 C   0  0  0  0  0  0  0  0  0  0  0  0
  -22.2925    1.7429   28.0473 C   0  0  0  0  0  0  0  0  0  0  0  0
  -22.1712    0.7080   28.9284 C   0  0  0  0  0  0  0  0  0  0  0  0
  -23.3345   -0.0624   29.3081 C   0  0  0  0  0  0  0  0  0  0  0  0
  -27.9546   -1.8765   29.8726 C   0  0  0  0  0  0  0  0  0  0  0  0
  -26.7258   -2.3300   30.3106 C   0  0  0  0  0  0  0  0  0  0  0  0
  -25.6021   -1.5639   29.9668 C   0  0  0  0  0  0  0  0  0  0  0  0
  -29.1346   -2.6761   30.2461 C   0  0  0  0  0  0  0  0  0  0  0  0
  -29.0387   -3.9638   30.3983 N   0  0  0  0  0  0  0  0  0  0  0  0
  -30.2464   -2.1311   30.4354 O   0  0  0  0  0  0  0  0  0  0  0  0
  -30.1142   -4.8657   30.7158 C   0  0  0  0  0  0  0  0  0  0  0  0
  -30.8460   -5.2038   29.5984 C   0  0  0  0  0  0  0  0  0  0  0  0
  -30.6111   -4.9361   28.4317 C   0  0  0  0  0  0  0  0  0  0  0  0
  -31.2697   -5.3891   27.2279 C   0  0  0  0  0  0  0  0  0  0  0  0
  -32.3691   -6.3006   27.4163 C   0  0  0  0  0  0  0  0  0  0  0  0
  -32.6442   -6.6756   28.7490 C   0  0  0  0  0  0  0  0  0  0  0  0
  -31.9087   -6.2181   29.8142 C   0  0  0  0  0  0  0  0  0  0  0  0
  -33.1151   -6.7260   26.2861 C   0  0  0  0  0  0  0  0  0  0  0  0
  -32.8954   -7.7480   25.4859 C   0  0  0  0  0  0  0  0  0  0  0  0
  -34.2350   -5.8633   25.9072 C   0  0  0  0  0  0  0  0  0  0  0  0
  -31.6226   -8.3777   25.5166 C   0  0  0  0  0  0  0  0  0  0  0  0
  -31.3587   -9.5235   25.7034 C   0  0  0  0  0  0  0  0  0  0  0  0
  -32.3721  -10.4207   26.1237 C   0  0  0  0  0  0  0  0  0  0  0  0
  -33.6459  -10.0135   25.7390 C   0  0  0  0  0  0  0  0  0  0  0  0
  -33.8394   -8.7518   25.2045 C   0  0  0  0  0  0  0  0  0  0  0  0
  -34.9568   -5.2930   26.9295 C   0  0  0  0  0  0  0  0  0  0  0  0
  -35.7886   -4.7071   27.0530 C   0  0  0  0  0  0  0  0  0  0  0  0
  -36.5119   -4.2550   25.8410 C   0  0  0  0  0  0  0  0  0  0  0  0
  -35.9566   -4.7727   24.6366 C   0  0  0  0  0  0  0  0  0  0  0  0
  -34.7681   -5.5658   24.6689 C   0  0  0  0  0  0  0  0  0  0  0  0
  3  4  1  0
 10 13  1  0
 13 14  1  0
 13 15  2  0
 14 16  1  0
 16 17  1  0
 20 23  1  0
 23 24  1  0
 23 25  1  0
  1  2  2  0
  2  3  1  0
  3 12  2  0
 12 11  1  0
 11 10  2  0
 10  1  1  0
 17 18  2  0
 18 19  1  0
 19 20  2  0
 20 21  1  0
 21 22  2  0
 22 17  1  0
 25 31  2  0
 31 32  1  0
 32 33  2  0
 33 34  1  0
 34 35  2  0
 35 25  1  0
 24 26  2  0
 26 27  1  0
 27 28  2  0
 28 29  1  0
 29 30  2  0
 30 24  1  0
  4  5  2  0
  5  6  1  0
  6  7  2  0
  7  8  1  0
  8  9  2  0
  9  4  1  0
M  END

$$$$
