No_2916-gen_results/8p0m/2024-11-27-11-27-31/
     RDKit          3D

 14 14  0  0  0  0  0  0  0  0999 V2000
  -28.0162   -0.8135   28.8779 C   0  0  0  0  0  0  0  0  0  0  0  0
  -27.0636   -0.1189   28.6079 C   0  0  0  0  0  0  0  0  0  0  0  0
  -26.8756    1.1325   28.9134 C   0  0  0  0  0  0  0  0  0  0  0  0
  -27.9014    1.8066   29.6436 C   0  0  0  0  0  0  0  0  0  0  0  0
  -28.9449    1.0388   30.0360 C   0  0  0  0  0  0  0  0  0  0  0  0
  -29.0273   -0.2890   29.7051 C   0  0  0  0  0  0  0  0  0  0  0  0
  -25.5203    2.0636   28.4209 Cl  0  0  0  0  0  0  0  0  0  0  0  0
  -30.1401   -1.1964   30.1172 C   0  0  0  0  0  0  0  0  0  0  0  0
  -31.1400   -1.1745   29.6338 O   0  0  0  0  0  0  0  0  0  0  0  0
  -29.9713   -1.8002   31.3100 O   0  0  0  0  0  0  0  0  0  0  0  0
  -25.8894   -0.6635   27.8041 N   0  0  0  0  0  0  0  0  0  0  0  0
  -24.6727   -1.0451   28.3003 C   0  0  0  0  0  0  0  0  0  0  0  0
  -23.6135   -0.2722   28.4750 C   0  0  0  0  0  0  0  0  0  0  0  0
  -22.4320   -0.8174   29.1182 C   0  0  0  0  0  0  0  0  0  0  0  0
  3  7  1  0
  6  8  1  0
  8  9  1  0
  8 10  2  0
  2 11  1  0
 11 12  1  0
 12 13  2  3
 13 14  1  0
  1  2  2  0
  2  3  1  0
  3  4  2  0
  4  5  1  0
  5  6  2  0
  6  1  1  0
M  END

$$$$
