No_2629-gen_results/8p0m/2024-11-27-11-27-31/
     RDKit          3D

 18 20  0  0  0  0  0  0  0  0999 V2000
  -28.1229   -1.3353   28.4874 O   0  0  0  0  0  0  0  0  0  0  0  0
  -27.0637   -0.8242   28.8687 C   0  0  0  0  0  0  0  0  0  0  0  0
  -26.4017   -0.0623   28.6224 C   0  0  0  0  0  0  0  0  0  0  0  0
  -26.3805   -1.7991   29.9619 N   0  0  0  0  0  0  0  0  0  0  0  0
  -26.7771    1.0571   27.7896 C   0  0  0  0  0  0  0  0  0  0  0  0
  -27.7401    1.4787   27.6544 C   0  0  0  0  0  0  0  0  0  0  0  0
  -28.0869    2.5845   26.6424 C   0  0  0  0  0  0  0  0  0  0  0  0
  -27.0174    3.1086   25.9247 C   0  0  0  0  0  0  0  0  0  0  0  0
  -25.7358    2.6082   26.0838 C   0  0  0  0  0  0  0  0  0  0  0  0
  -25.5045    1.6396   27.0051 C   0  0  0  0  0  0  0  0  0  0  0  0
  -25.1624   -1.6731   30.3790 C   0  0  0  0  0  0  0  0  0  0  0  0
  -24.4982   -0.9505   29.9058 C   0  0  0  0  0  0  0  0  0  0  0  0
  -24.8556    0.0868   29.0689 C   0  0  0  0  0  0  0  0  0  0  0  0
  -24.1678    1.2444   27.2513 C   0  0  0  0  0  0  0  0  0  0  0  0
  -23.8658    0.7035   28.3345 C   0  0  0  0  0  0  0  0  0  0  0  0
  -22.4257    0.5037   28.7101 C   0  0  0  0  0  0  0  0  0  0  0  0
  -22.0185   -0.3584   29.5735 O   0  0  0  0  0  0  0  0  0  0  0  0
  -21.4872    1.3560   28.1407 N   0  0  0  0  0  0  0  0  0  0  0  0
  1  2  2  0
  2  3  1  0
  2  4  1  0
 11 12  1  0
 15 16  1  0
 16 17  2  0
 16 18  1  0
 13 12  1  0
 11  4  1  0
  3  5  2  0
 10 14  2  0
 14 15  1  0
 15 13  2  0
 13  3  1  0
  5  6  1  0
  6  7  2  0
  7  8  1  0
  8  9  2  0
  9 10  1  0
 10  5  1  0
M  END

$$$$
