No_2863-gen_results/8p0m/2024-11-27-11-27-31/
     RDKit          3D

 16 17  0  0  0  0  0  0  0  0999 V2000
  -28.0162   -0.8135   28.8779 C   0  0  0  0  0  0  0  0  0  0  0  0
  -28.4690   -0.7850   29.8287 C   0  0  0  0  0  0  0  0  0  0  0  0
  -26.5455   -0.8762   28.8500 C   0  0  0  0  0  0  0  0  0  0  0  0
  -25.8041   -1.0324   30.0571 C   0  0  0  0  0  0  0  0  0  0  0  0
  -27.9437   -0.9869   31.2075 C   0  0  0  0  0  0  0  0  0  0  0  0
  -26.5825   -1.0386   31.2231 C   0  0  0  0  0  0  0  0  0  0  0  0
  -29.9436   -0.6830   29.6853 N   0  0  0  0  0  0  0  0  0  0  0  0
  -30.7883   -1.3979   30.2794 C   0  0  0  0  0  0  0  0  0  0  0  0
  -31.4987   -2.0978   29.9573 C   0  0  0  0  0  0  0  0  0  0  0  0
  -32.4278   -2.9932   30.7206 C   0  0  0  0  0  0  0  0  0  0  0  0
  -32.3227   -2.8391   32.1054 C   0  0  0  0  0  0  0  0  0  0  0  0
  -31.4186   -2.0196   32.6514 C   0  0  0  0  0  0  0  0  0  0  0  0
  -30.5679   -1.2870   31.8654 C   0  0  0  0  0  0  0  0  0  0  0  0
  -30.4106    0.2588   28.7720 C   0  0  0  0  0  0  0  0  0  0  0  0
  -30.6107   -0.0900   27.5222 C   0  0  0  0  0  0  0  0  0  0  0  0
  -31.1123    0.8285   26.6204 C   0  0  0  0  0  0  0  0  0  0  0  0
  2  7  1  0
  7  8  1  0
  7 14  1  0
 14 15  2  3
 15 16  1  0
  8  9  2  0
  9 10  1  0
 10 11  2  0
 11 12  1  0
 12 13  2  0
 13  8  1  0
  1  2  2  0
  2  5  1  0
  5  6  2  0
  6  4  1  0
  4  3  2  0
  3  1  1  0
M  END

$$$$
