No_2659-gen_results/8p0m/2024-11-27-11-27-31/
     RDKit          3D

 14 15  0  0  0  0  0  0  0  0999 V2000
  -28.0162   -0.8135   28.8779 C   0  0  0  0  0  0  0  0  0  0  0  0
  -28.4690   -0.7850   29.8287 C   0  0  0  0  0  0  0  0  0  0  0  0
  -26.5455   -0.8762   28.8500 C   0  0  0  0  0  0  0  0  0  0  0  0
  -25.8041   -1.0324   30.0571 C   0  0  0  0  0  0  0  0  0  0  0  0
  -26.5373   -1.0386   31.2171 C   0  0  0  0  0  0  0  0  0  0  0  0
  -27.8843   -0.9532   31.1862 C   0  0  0  0  0  0  0  0  0  0  0  0
  -24.3555   -1.1121   30.0346 C   0  0  0  0  0  0  0  0  0  0  0  0
  -23.6129   -1.1081   29.0414 C   0  0  0  0  0  0  0  0  0  0  0  0
  -22.1516   -0.9907   29.0790 C   0  0  0  0  0  0  0  0  0  0  0  0
  -23.5978   -0.1195   30.9277 C   0  0  0  0  0  0  0  0  0  0  0  0
  -22.3199    0.0364   30.9223 N   0  0  0  0  0  0  0  0  0  0  0  0
  -21.6524   -0.0310   29.8157 C   0  0  0  0  0  0  0  0  0  0  0  0
  -30.2787   -0.6720   29.9090 Cl  0  0  0  0  0  0  0  0  0  0  0  0
  -25.8303   -0.8685   27.7104 F   0  0  0  0  0  0  0  0  0  0  0  0
  4  7  1  0
  2 13  1  0
  3 14  1  0
  1  2  2  0
  2  6  1  0
  6  5  2  0
  5  4  1  0
  4  3  2  0
  3  1  1  0
  7  8  2  0
  8  9  1  0
  9 12  2  0
 12 11  1  0
 11 10  2  0
 10  7  1  0
M  END

$$$$
