No_28-gen_results/8p0m/2024-11-27-11-27-31/
     RDKit          3D

 14 15  0  0  0  0  0  0  0  0999 V2000
  -28.0162   -0.8135   28.8779 C   0  0  0  0  0  0  0  0  0  0  0  0
  -28.4690   -0.7850   29.8287 C   0  0  0  0  0  0  0  0  0  0  0  0
  -26.5455   -0.8762   28.8500 C   0  0  0  0  0  0  0  0  0  0  0  0
  -25.8041   -1.0324   30.0571 C   0  0  0  0  0  0  0  0  0  0  0  0
  -27.9437   -0.9869   31.2075 C   0  0  0  0  0  0  0  0  0  0  0  0
  -26.5825   -1.0386   31.2231 C   0  0  0  0  0  0  0  0  0  0  0  0
  -29.9648   -0.7353   29.8902 N   0  0  0  0  0  0  0  0  0  0  0  0
  -30.6477    0.3169   30.2682 C   0  0  0  0  0  0  0  0  0  0  0  0
  -30.0738    1.3599   30.4675 C   0  0  0  0  0  0  0  0  0  0  0  0
  -30.8901    2.6109   30.8165 C   0  0  0  0  0  0  0  0  0  0  0  0
  -30.3022    3.8591   31.0941 C   0  0  0  0  0  0  0  0  0  0  0  0
  -28.8798    3.9385   30.9948 C   0  0  0  0  0  0  0  0  0  0  0  0
  -28.0796    2.8223   30.6921 C   0  0  0  0  0  0  0  0  0  0  0  0
  -28.6521    1.6407   30.4690 C   0  0  0  0  0  0  0  0  0  0  0  0
  2  7  1  0
  7  8  1  0
  8  9  1  0
  9 10  2  0
 10 11  1  0
 11 12  2  0
 12 13  1  0
 13 14  2  0
 14  9  1  0
  1  2  2  0
  2  5  1  0
  5  6  2  0
  6  4  1  0
  4  3  2  0
  3  1  1  0
M  END

$$$$
