No_2738-gen_results/8p0m/2024-11-27-11-27-31/
     RDKit          3D

 30 33  0  0  0  0  0  0  0  0999 V2000
  -28.0162   -0.8135   28.8779 C   0  0  0  0  0  0  0  0  0  0  0  0
  -28.4690   -0.7850   29.8287 C   0  0  0  0  0  0  0  0  0  0  0  0
  -26.5455   -0.8762   28.8500 C   0  0  0  0  0  0  0  0  0  0  0  0
  -25.8041   -1.0324   30.0571 C   0  0  0  0  0  0  0  0  0  0  0  0
  -27.9437   -0.9869   31.2075 C   0  0  0  0  0  0  0  0  0  0  0  0
  -26.5825   -1.0386   31.2231 C   0  0  0  0  0  0  0  0  0  0  0  0
  -24.3810   -1.1082   30.0855 C   0  0  0  0  0  0  0  0  0  0  0  0
  -23.7055    0.0955   29.8440 C   0  0  0  0  0  0  0  0  0  0  0  0
  -22.4285    0.1160   29.2171 C   0  0  0  0  0  0  0  0  0  0  0  0
  -21.7317   -1.1325   29.1903 C   0  0  0  0  0  0  0  0  0  0  0  0
  -20.5527   -0.9509   28.5717 N   0  0  0  0  0  0  0  0  0  0  0  0
  -21.8298    1.2210   28.6323 C   0  0  0  0  0  0  0  0  0  0  0  0
  -21.1810    1.2224   27.7984 N   0  0  0  0  0  0  0  0  0  0  0  0
  -20.2235    0.1401   27.9215 C   0  0  0  0  0  0  0  0  0  0  0  0
  -30.0919   -0.7217   29.8796 C   0  0  0  0  0  0  0  0  0  0  0  0
  -30.5856   -0.1450   28.9243 N   0  0  0  0  0  0  0  0  0  0  0  0
  -31.5054   -0.8050   28.0727 C   0  0  0  0  0  0  0  0  0  0  0  0
  -31.8248   -0.2570   26.7781 C   0  0  0  0  0  0  0  0  0  0  0  0
  -31.1587    0.3874   26.3769 C   0  0  0  0  0  0  0  0  0  0  0  0
  -30.1770    1.2740   26.9212 C   0  0  0  0  0  0  0  0  0  0  0  0
  -29.8731    0.8658   28.2624 C   0  0  0  0  0  0  0  0  0  0  0  0
  -30.7363   -1.2234   30.8185 O   0  0  0  0  0  0  0  0  0  0  0  0
  -25.8133   -0.7582   27.6725 N   0  0  0  0  0  0  0  0  0  0  0  0
  -25.7308    0.3885   26.8214 C   0  0  0  0  0  0  0  0  0  0  0  0
  -25.5218    0.5602   25.8149 C   0  0  0  0  0  0  0  0  0  0  0  0
  -26.0794    1.6694   27.6215 C   0  0  0  0  0  0  0  0  0  0  0  0
  -25.9771    2.8757   26.9705 C   0  0  0  0  0  0  0  0  0  0  0  0
  -25.1122   -0.6624   24.9387 C   0  0  0  0  0  0  0  0  0  0  0  0
  -25.5071    2.8997   25.6896 C   0  0  0  0  0  0  0  0  0  0  0  0
  -25.2705    1.7899   25.1003 C   0  0  0  0  0  0  0  0  0  0  0  0
  4  7  1  0
  7  8  1  0
  8  9  1  0
  2 15  1  0
 15 16  1  0
 16 17  1  0
 18 19  1  0
 16 21  1  0
 20 21  1  0
 15 22  2  0
  3 23  1  0
 23 24  1  0
 25 28  1  0
 17 18  1  0
 19 20  1  0
 24 25  2  0
 25 30  1  0
 30 29  2  0
 29 27  1  0
 27 26  2  0
 26 24  1  0
  9 10  2  0
 10 11  1  0
 11 14  2  0
 14 13  1  0
 13 12  2  0
 12  9  1  0
  1  2  2  0
  2  5  1  0
  5  6  2  0
  6  4  1  0
  4  3  2  0
  3  1  1  0
M  END

$$$$
