No_2310-gen_results/8p0m/2024-11-27-11-27-31/
     RDKit          3D

 35 38  0  0  0  0  0  0  0  0999 V2000
  -28.0162   -0.8135   28.8779 C   0  0  0  0  0  0  0  0  0  0  0  0
  -27.0636   -0.1190   28.6079 C   0  0  0  0  0  0  0  0  0  0  0  0
  -26.9716    0.7139   27.5060 C   0  0  0  0  0  0  0  0  0  0  0  0
  -25.8205    1.4909   27.1160 C   0  0  0  0  0  0  0  0  0  0  0  0
  -24.6562    1.4242   27.9180 C   0  0  0  0  0  0  0  0  0  0  0  0
  -24.6847    0.5901   29.0659 C   0  0  0  0  0  0  0  0  0  0  0  0
  -25.8099   -0.1265   29.3338 C   0  0  0  0  0  0  0  0  0  0  0  0
  -28.6943   -0.4734   30.1587 C   0  0  0  0  0  0  0  0  0  0  0  0
  -28.6468    0.6468   30.5733 C   0  0  0  0  0  0  0  0  0  0  0  0
  -29.3929    1.0105   31.8589 C   0  0  0  0  0  0  0  0  0  0  0  0
  -23.4543    2.1714   27.5811 C   0  0  0  0  0  0  0  0  0  0  0  0
  -23.2525    2.6868   26.4920 O   0  0  0  0  0  0  0  0  0  0  0  0
  -22.2429    1.7648   28.2301 O   0  0  0  0  0  0  0  0  0  0  0  0
  -30.0691   -0.0026   32.4947 C   0  0  0  0  0  0  0  0  0  0  0  0
  -29.4639   -1.5609   30.8703 C   0  0  0  0  0  0  0  0  0  0  0  0
  -30.1122   -1.2837   32.0349 C   0  0  0  0  0  0  0  0  0  0  0  0
  -28.1130    0.8415   26.5734 C   0  0  0  0  0  0  0  0  0  0  0  0
  -29.1412    1.3487   26.8638 O   0  0  0  0  0  0  0  0  0  0  0  0
  -27.8681    0.6521   25.2786 N   0  0  0  0  0  0  0  0  0  0  0  0
  -28.8462    0.6893   24.2557 C   0  0  0  0  0  0  0  0  0  0  0  0
  -26.5975    0.1154   24.7181 C   0  0  0  0  0  0  0  0  0  0  0  0
  -29.4519    1.9050   24.1409 C   0  0  0  0  0  0  0  0  0  0  0  0
  -30.7165    2.0291   23.4654 C   0  0  0  0  0  0  0  0  0  0  0  0
  -31.3496    3.2974   23.3366 C   0  0  0  0  0  0  0  0  0  0  0  0
  -32.6081    3.3867   22.6941 C   0  0  0  0  0  0  0  0  0  0  0  0
  -33.0292    2.2207   21.9886 C   0  0  0  0  0  0  0  0  0  0  0  0
  -32.3450    1.0580   22.0211 C   0  0  0  0  0  0  0  0  0  0  0  0
  -31.2134    0.9698   22.7346 C   0  0  0  0  0  0  0  0  0  0  0  0
  -33.2775    4.5603   22.6052 N   0  0  0  0  0  0  0  0  0  0  0  0
  -33.9703    5.0196   21.5490 C   0  0  0  0  0  0  0  0  0  0  0  0
  -34.5402    6.2880   21.6212 C   0  0  0  0  0  0  0  0  0  0  0  0
  -33.4460    5.3356   23.7722 C   0  0  0  0  0  0  0  0  0  0  0  0
  -34.5337    5.9348   23.9882 C   0  0  0  0  0  0  0  0  0  0  0  0
  -34.8645    6.8930   22.8794 C   0  0  0  0  0  0  0  0  0  0  0  0
  -35.1725    6.8570   20.4038 C   0  0  0  0  0  0  0  0  0  0  0  0
  1  8  1  0
  5 11  1  0
 11 12  2  0
 11 13  1  0
  3 17  1  0
 17 18  2  0
 17 19  1  0
 19 20  1  0
 19 21  1  0
 20 22  1  0
 25 29  1  0
 29 30  1  0
 29 32  1  0
 32 33  1  0
 31 34  1  0
 31 35  1  0
 22 23  1  0
  1  2  1  0
 30 31  1  0
 34 33  1  0
  2  3  1  0
  3  4  2  0
  4  5  1  0
  5  6  2  0
  6  7  1  0
  7  2  2  0
 23 24  2  0
 24 25  1  0
 25 26  2  0
 26 27  1  0
 27 28  2  0
 28 23  1  0
  8  9  2  0
  9 10  1  0
 10 14  2  0
 14 16  1  0
 16 15  2  0
 15  8  1  0
M  END

$$$$
