No_2791-gen_results/8p0m/2024-11-27-11-27-31/
     RDKit          3D

 31 33  0  0  0  0  0  0  0  0999 V2000
  -28.0162   -0.8135   28.8779 C   0  0  0  0  0  0  0  0  0  0  0  0
  -27.0636   -0.1189   28.6079 C   0  0  0  0  0  0  0  0  0  0  0  0
  -25.7647   -0.3897   29.0360 C   0  0  0  0  0  0  0  0  0  0  0  0
  -24.5516    0.4058   28.7646 C   0  0  0  0  0  0  0  0  0  0  0  0
  -23.2300    0.1178   29.2575 C   0  0  0  0  0  0  0  0  0  0  0  0
  -22.1393    0.9427   28.9224 C   0  0  0  0  0  0  0  0  0  0  0  0
  -27.8294   -1.9287   29.8545 C   0  0  0  0  0  0  0  0  0  0  0  0
  -26.5882   -2.3272   30.2682 C   0  0  0  0  0  0  0  0  0  0  0  0
  -25.4565   -1.5432   29.9146 C   0  0  0  0  0  0  0  0  0  0  0  0
  -22.2302    1.9089   27.8723 C   0  0  0  0  0  0  0  0  0  0  0  0
  -24.5538    1.4700   27.7617 C   0  0  0  0  0  0  0  0  0  0  0  0
  -23.4471    2.1666   27.3764 C   0  0  0  0  0  0  0  0  0  0  0  0
  -28.9783   -2.7708   30.2578 C   0  0  0  0  0  0  0  0  0  0  0  0
  -28.8311   -4.0718   30.4871 N   0  0  0  0  0  0  0  0  0  0  0  0
  -29.6649   -4.7818   31.2377 C   0  0  0  0  0  0  0  0  0  0  0  0
  -30.0945   -2.3205   30.0442 O   0  0  0  0  0  0  0  0  0  0  0  0
  -30.4805   -5.6796   30.4625 C   0  0  0  0  0  0  0  0  0  0  0  0
  -31.7549   -5.3678   30.4901 C   0  0  0  0  0  0  0  0  0  0  0  0
  -32.4857   -5.8116   29.4380 C   0  0  0  0  0  0  0  0  0  0  0  0
  -31.9838   -6.7621   28.4544 C   0  0  0  0  0  0  0  0  0  0  0  0
  -30.6163   -6.9794   28.4833 C   0  0  0  0  0  0  0  0  0  0  0  0
  -29.8575   -6.3463   29.4719 C   0  0  0  0  0  0  0  0  0  0  0  0
  -32.8011   -7.3375   27.3949 C   0  0  0  0  0  0  0  0  0  0  0  0
  -33.2611   -6.5404   26.4217 C   0  0  0  0  0  0  0  0  0  0  0  0
  -32.9842   -8.7073   27.3317 C   0  0  0  0  0  0  0  0  0  0  0  0
  -32.7409   -9.4987   28.2329 C   0  0  0  0  0  0  0  0  0  0  0  0
  -32.7435   -9.1958   29.4872 C   0  0  0  0  0  0  0  0  0  0  0  0
  -32.4080  -10.2798   30.5253 C   0  0  0  0  0  0  0  0  0  0  0  0
  -32.3908   -9.9478   31.8992 C   0  0  0  0  0  0  0  0  0  0  0  0
  -32.6290   -8.6025   32.2849 C   0  0  0  0  0  0  0  0  0  0  0  0
  -33.0436   -7.6905   31.3779 C   0  0  0  0  0  0  0  0  0  0  0  0
  3  4  1  0
  7 13  1  0
 13 14  1  0
 14 15  1  0
 13 16  2  0
 15 17  1  0
 20 23  1  0
 23 24  1  0
 23 25  1  0
 25 26  1  0
 26 27  2  3
 27 28  1  0
 28 29  2  3
 29 30  1  0
 30 31  2  0
 17 18  2  0
 18 19  1  0
 19 20  2  0
 20 21  1  0
 21 22  2  0
 22 17  1  0
  1  2  2  0
  2  3  1  0
  3  9  2  0
  9  8  1  0
  8  7  2  0
  7  1  1  0
  4  5  2  0
  5  6  1  0
  6 10  2  0
 10 12  1  0
 12 11  2  0
 11  4  1  0
M  END

$$$$
