No_2011-gen_results/8p0m/2024-11-27-11-27-31/
     RDKit          3D

 19 21  0  0  0  0  0  0  0  0999 V2000
  -28.0162   -0.8135   28.8779 C   0  0  0  0  0  0  0  0  0  0  0  0
  -27.0636   -0.1189   28.6079 C   0  0  0  0  0  0  0  0  0  0  0  0
  -25.7647   -0.3897   29.0360 C   0  0  0  0  0  0  0  0  0  0  0  0
  -24.5517    0.4058   28.7646 C   0  0  0  0  0  0  0  0  0  0  0  0
  -24.6957    1.4480   27.7988 C   0  0  0  0  0  0  0  0  0  0  0  0
  -25.9755    1.7250   27.3077 C   0  0  0  0  0  0  0  0  0  0  0  0
  -27.0718    1.0134   27.6535 C   0  0  0  0  0  0  0  0  0  0  0  0
  -27.9653   -1.6216   30.1356 C   0  0  0  0  0  0  0  0  0  0  0  0
  -26.6745   -2.1506   30.4964 C   0  0  0  0  0  0  0  0  0  0  0  0
  -25.5535   -1.4129   30.0823 C   0  0  0  0  0  0  0  0  0  0  0  0
  -23.4812    2.2323   27.4585 C   0  0  0  0  0  0  0  0  0  0  0  0
  -22.4671    1.5928   27.0312 O   0  0  0  0  0  0  0  0  0  0  0  0
  -23.6108    3.5267   27.4761 O   0  0  0  0  0  0  0  0  0  0  0  0
  -28.3496    1.2838   26.9688 C   0  0  0  0  0  0  0  0  0  0  0  0
  -29.1427    2.0979   27.6000 C   0  0  0  0  0  0  0  0  0  0  0  0
  -28.6491    0.7264   25.7558 C   0  0  0  0  0  0  0  0  0  0  0  0
  -29.9301    0.4479   25.2716 C   0  0  0  0  0  0  0  0  0  0  0  0
  -30.5699    2.1001   27.0413 C   0  0  0  0  0  0  0  0  0  0  0  0
  -30.8422    1.4085   25.8598 C   0  0  0  0  0  0  0  0  0  0  0  0
  5 11  1  0
 11 12  2  0
 11 13  1  0
  7 14  1  0
  3  4  1  0
  4  5  2  0
  5  6  1  0
  6  7  2  0
  7  2  1  0
 14 15  2  0
 15 18  1  0
 18 19  2  0
 19 17  1  0
 17 16  2  0
 16 14  1  0
  1  2  2  0
  2  3  1  0
  3 10  2  0
 10  9  1  0
  9  8  2  0
  8  1  1  0
M  END

$$$$
