No_2044-gen_results/8p0m/2024-11-27-11-27-31/
     RDKit          3D

 11 11  0  0  0  0  0  0  0  0999 V2000
  -28.0162   -0.8135   28.8779 C   0  0  0  0  0  0  0  0  0  0  0  0
  -27.0636   -0.1190   28.6079 C   0  0  0  0  0  0  0  0  0  0  0  0
  -25.7923   -0.4302   29.0761 C   0  0  0  0  0  0  0  0  0  0  0  0
  -24.6321    0.3096   28.7290 C   0  0  0  0  0  0  0  0  0  0  0  0
  -27.8949   -1.8615   29.8946 C   0  0  0  0  0  0  0  0  0  0  0  0
  -26.6706   -2.2977   30.3374 C   0  0  0  0  0  0  0  0  0  0  0  0
  -25.5508   -1.5631   29.9406 C   0  0  0  0  0  0  0  0  0  0  0  0
  -24.5880    1.2414   27.7555 C   0  0  0  0  0  0  0  0  0  0  0  0
  -25.4007    1.7266   27.0411 C   0  0  0  0  0  0  0  0  0  0  0  0
  -25.0444    2.7258   26.1436 C   0  0  0  0  0  0  0  0  0  0  0  0
  -23.6879    3.0370   26.0431 C   0  0  0  0  0  0  0  0  0  0  0  0
  1  2  1  0
  2  3  1  0
  3  4  2  3
  1  5  1  0
  5  6  1  0
  3  7  1  0
  6  7  1  0
  4  8  1  0
  8  9  2  3
  9 10  1  0
 10 11  2  0
M  END

$$$$
