No_2187-gen_results/8p0m/2024-11-27-11-27-31/
     RDKit          3D

 17 19  0  0  0  0  0  0  0  0999 V2000
  -28.0162   -0.8135   28.8779 C   0  0  0  0  0  0  0  0  0  0  0  0
  -28.4690   -0.7850   29.8287 C   0  0  0  0  0  0  0  0  0  0  0  0
  -28.1960    0.3478   28.0550 C   0  0  0  0  0  0  0  0  0  0  0  0
  -29.0191    1.3501   28.3782 C   0  0  0  0  0  0  0  0  0  0  0  0
  -29.1993    2.4568   27.5396 C   0  0  0  0  0  0  0  0  0  0  0  0
  -29.3831    0.1511   30.4352 C   0  0  0  0  0  0  0  0  0  0  0  0
  -29.6005    1.2796   29.6234 C   0  0  0  0  0  0  0  0  0  0  0  0
  -29.4080    2.5341   26.4282 C   0  0  0  0  0  0  0  0  0  0  0  0
  -29.4736    1.2439   25.6662 C   0  0  0  0  0  0  0  0  0  0  0  0
  -28.2198    0.7943   25.2669 C   0  0  0  0  0  0  0  0  0  0  0  0
  -27.1986    0.5548   26.1651 C   0  0  0  0  0  0  0  0  0  0  0  0
  -27.4579    0.3113   26.9283 C   0  0  0  0  0  0  0  0  0  0  0  0
  -25.8896    0.3536   25.3561 C   0  0  0  0  0  0  0  0  0  0  0  0
  -26.3473   -0.4977   27.4835 O   0  0  0  0  0  0  0  0  0  0  0  0
  -25.2692   -0.2888   26.5328 C   0  0  0  0  0  0  0  0  0  0  0  0
  -30.4132    1.3888   24.3914 C   0  0  0  0  0  0  0  0  0  0  0  0
  -28.0546    0.5278   23.9249 C   0  0  0  0  0  0  0  0  0  0  0  0
  4  5  1  0
  5  8  2  3
  8  9  1  0
  9 10  2  3
 10 11  1  0
  3 12  1  0
 11 12  1  0
 11 13  1  0
 12 14  1  0
 13 15  1  0
 14 15  1  0
  9 16  1  0
 10 17  1  0
  1  2  2  0
  2  6  1  0
  6  7  2  0
  7  4  1  0
  4  3  2  0
  3  1  1  0
M  END

$$$$
