No_2429-gen_results/8p0m/2024-11-27-11-27-31/
     RDKit          3D

 21 23  0  0  0  0  0  0  0  0999 V2000
  -28.0162   -0.8135   28.8779 C   0  0  0  0  0  0  0  0  0  0  0  0
  -27.0636   -0.1189   28.6079 C   0  0  0  0  0  0  0  0  0  0  0  0
  -25.7647   -0.3897   29.0360 C   0  0  0  0  0  0  0  0  0  0  0  0
  -25.5296   -1.5302   29.9014 C   0  0  0  0  0  0  0  0  0  0  0  0
  -26.6888   -2.2893   30.1810 C   0  0  0  0  0  0  0  0  0  0  0  0
  -27.8727   -1.9508   29.7373 C   0  0  0  0  0  0  0  0  0  0  0  0
  -24.5491    0.4100   28.7341 C   0  0  0  0  0  0  0  0  0  0  0  0
  -24.4789    1.1871   27.6843 C   0  0  0  0  0  0  0  0  0  0  0  0
  -23.2830    1.8356   27.3522 C   0  0  0  0  0  0  0  0  0  0  0  0
  -22.1028    1.6619   28.0350 C   0  0  0  0  0  0  0  0  0  0  0  0
  -23.3238    0.1535   29.4730 C   0  0  0  0  0  0  0  0  0  0  0  0
  -22.1169    0.8126   29.1066 C   0  0  0  0  0  0  0  0  0  0  0  0
  -28.9259   -2.7052   30.0658 F   0  0  0  0  0  0  0  0  0  0  0  0
  -23.3030    2.7269   26.2915 O   0  0  0  0  0  0  0  0  0  0  0  0
  -29.2726   -0.5209   28.4844 O   0  0  0  0  0  0  0  0  0  0  0  0
  -30.1323    0.1467   29.2716 C   0  0  0  0  0  0  0  0  0  0  0  0
  -29.8770    1.2951   29.6676 C   0  0  0  0  0  0  0  0  0  0  0  0
  -30.6729    1.8510   30.6837 C   0  0  0  0  0  0  0  0  0  0  0  0
  -31.9185    1.2648   30.9036 C   0  0  0  0  0  0  0  0  0  0  0  0
  -31.2859   -0.5757   29.6590 C   0  0  0  0  0  0  0  0  0  0  0  0
  -32.1693    0.0221   30.4841 C   0  0  0  0  0  0  0  0  0  0  0  0
  3  7  1  0
  6 13  1  0
  9 14  1  0
  1 15  1  0
 15 16  1  0
  7  8  2  0
  8  9  1  0
  9 10  2  0
 10 12  1  0
 12 11  2  0
 11  7  1  0
  1  2  2  0
  2  3  1  0
  3  4  2  0
  4  5  1  0
  5  6  2  0
  6  1  1  0
 16 17  2  0
 17 18  1  0
 18 19  2  0
 19 21  1  0
 21 20  2  0
 20 16  1  0
M  END

$$$$
