No_2569-gen_results/8p0m/2024-11-27-11-27-31/
     RDKit          3D

 20 21  0  0  0  0  0  0  0  0999 V2000
  -28.0162   -0.8135   28.8779 C   0  0  0  0  0  0  0  0  0  0  0  0
  -27.0636   -0.1190   28.6079 C   0  0  0  0  0  0  0  0  0  0  0  0
  -25.7647   -0.3897   29.0360 C   0  0  0  0  0  0  0  0  0  0  0  0
  -25.5296   -1.5302   29.9014 C   0  0  0  0  0  0  0  0  0  0  0  0
  -26.6888   -2.2893   30.1810 C   0  0  0  0  0  0  0  0  0  0  0  0
  -27.8727   -1.9508   29.7373 C   0  0  0  0  0  0  0  0  0  0  0  0
  -28.7636   -2.8289   30.2096 O   0  0  0  0  0  0  0  0  0  0  0  0
  -24.5499    0.4387   28.7343 C   0  0  0  0  0  0  0  0  0  0  0  0
  -24.1042    1.4225   29.5622 C   0  0  0  0  0  0  0  0  0  0  0  0
  -22.9896    2.1992   29.2302 C   0  0  0  0  0  0  0  0  0  0  0  0
  -22.2700    1.9682   28.0048 C   0  0  0  0  0  0  0  0  0  0  0  0
  -22.7675    1.0188   27.1733 C   0  0  0  0  0  0  0  0  0  0  0  0
  -23.8577    0.2620   27.5024 C   0  0  0  0  0  0  0  0  0  0  0  0
  -24.7378    1.6577   30.8928 C   0  0  0  0  0  0  0  0  0  0  0  0
  -26.1049    1.5540   30.7784 F   0  0  0  0  0  0  0  0  0  0  0  0
  -24.4944    2.9296   31.3363 F   0  0  0  0  0  0  0  0  0  0  0  0
  -24.2816    0.7657   31.7785 F   0  0  0  0  0  0  0  0  0  0  0  0
  -29.9508   -2.3910   30.7074 C   0  0  0  0  0  0  0  0  0  0  0  0
  -30.2475   -1.4355   31.0677 C   0  0  0  0  0  0  0  0  0  0  0  0
  -31.5403   -0.9915   31.6355 C   0  0  0  0  0  0  0  0  0  0  0  0
  6  7  1  0
  3  8  1  0
  9 14  1  0
 14 15  1  0
 14 16  1  0
 14 17  1  0
  7 18  1  0
 18 19  2  3
 19 20  1  0
  1  2  2  0
  2  3  1  0
  3  4  2  0
  4  5  1  0
  5  6  2  0
  6  1  1  0
  8  9  2  0
  9 10  1  0
 10 11  2  0
 11 12  1  0
 12 13  2  0
 13  8  1  0
M  END

$$$$
