No_2992-gen_results/8p0m/2024-11-27-11-27-31/
     RDKit          3D

 29 31  0  0  0  0  0  0  0  0999 V2000
  -28.1229   -1.3353   28.4874 O   0  0  0  0  0  0  0  0  0  0  0  0
  -27.0637   -0.8242   28.8687 C   0  0  0  0  0  0  0  0  0  0  0  0
  -26.9592    0.0926   29.7582 C   0  0  0  0  0  0  0  0  0  0  0  0
  -25.8472   -1.5491   28.6589 N   0  0  0  0  0  0  0  0  0  0  0  0
  -27.8673    0.9590   30.1109 C   0  0  0  0  0  0  0  0  0  0  0  0
  -24.5647   -1.1378   29.0392 C   0  0  0  0  0  0  0  0  0  0  0  0
  -24.4510   -0.0172   29.7492 C   0  0  0  0  0  0  0  0  0  0  0  0
  -25.5598    0.6710   30.1599 C   0  0  0  0  0  0  0  0  0  0  0  0
  -28.5145    1.7143   29.2872 C   0  0  0  0  0  0  0  0  0  0  0  0
  -29.6426    2.4731   29.5852 C   0  0  0  0  0  0  0  0  0  0  0  0
  -28.4187    0.7649   31.4611 C   0  0  0  0  0  0  0  0  0  0  0  0
  -29.5669    1.5424   31.8754 C   0  0  0  0  0  0  0  0  0  0  0  0
  -30.1333    2.3968   30.9329 C   0  0  0  0  0  0  0  0  0  0  0  0
  -31.2739    3.2482   31.3109 C   0  0  0  0  0  0  0  0  0  0  0  0
  -31.1737    3.9512   32.2262 O   0  0  0  0  0  0  0  0  0  0  0  0
  -32.1868    3.3489   30.3748 O   0  0  0  0  0  0  0  0  0  0  0  0
  -23.0384    0.3917   30.1578 C   0  0  0  0  0  0  0  0  0  0  0  0
  -21.9996   -0.2446   29.7892 O   0  0  0  0  0  0  0  0  0  0  0  0
  -22.9311    1.2058   31.1475 O   0  0  0  0  0  0  0  0  0  0  0  0
  -27.7686   -0.0904   32.4381 C   0  0  0  0  0  0  0  0  0  0  0  0
  -28.0857   -1.2652   32.3968 O   0  0  0  0  0  0  0  0  0  0  0  0
  -26.8974    0.4388   33.3130 N   0  0  0  0  0  0  0  0  0  0  0  0
  -26.1183   -0.3959   34.2440 C   0  0  0  0  0  0  0  0  0  0  0  0
  -26.6175    1.8765   33.3997 C   0  0  0  0  0  0  0  0  0  0  0  0
  -27.0803    2.6723   34.6907 C   0  0  0  0  0  0  0  0  0  0  0  0
  -26.7237    3.9584   34.6922 C   0  0  0  0  0  0  0  0  0  0  0  0
  -26.0233    4.6093   33.6329 C   0  0  0  0  0  0  0  0  0  0  0  0
  -25.6049    3.8088   32.5573 C   0  0  0  0  0  0  0  0  0  0  0  0
  -25.8499    2.5193   32.5591 C   0  0  0  0  0  0  0  0  0  0  0  0
  1  2  2  0
  2  3  1  0
  2  4  1  0
  3  5  1  0
  4  6  1  0
  3  8  1  0
  7  8  1  0
 13 14  1  0
 14 15  2  0
 14 16  1  0
  7 17  1  0
 17 18  2  0
 17 19  1  0
 11 20  1  0
 20 21  2  0
 20 22  1  0
 22 23  1  0
 22 24  1  0
  7  6  1  0
  5  9  2  0
  9 10  1  0
 10 13  2  0
 13 12  1  0
 12 11  2  0
 11  5  1  0
 24 25  2  0
 25 26  1  0
 26 27  2  0
 27 28  1  0
 28 29  2  0
 29 24  1  0
M  END

$$$$
