No_2340-gen_results/8p0m/2024-11-27-11-27-31/
     RDKit          3D

 16 18  0  0  0  0  0  0  0  0999 V2000
  -28.0162   -0.8135   28.8779 C   0  0  0  0  0  0  0  0  0  0  0  0
  -27.0636   -0.1189   28.6079 C   0  0  0  0  0  0  0  0  0  0  0  0
  -27.0010    0.6913   27.4910 C   0  0  0  0  0  0  0  0  0  0  0  0
  -25.8548    1.4825   27.0830 C   0  0  0  0  0  0  0  0  0  0  0  0
  -24.6901    1.4526   27.8807 C   0  0  0  0  0  0  0  0  0  0  0  0
  -24.7379    0.6010   29.0416 C   0  0  0  0  0  0  0  0  0  0  0  0
  -25.8234   -0.1688   29.3887 C   0  0  0  0  0  0  0  0  0  0  0  0
  -28.7300   -0.5298   30.0429 N   0  0  0  0  0  0  0  0  0  0  0  0
  -28.9322    0.3227   30.5381 C   0  0  0  0  0  0  0  0  0  0  0  0
  -29.3038    1.0059   31.2658 C   0  0  0  0  0  0  0  0  0  0  0  0
  -29.2008    2.3938   31.0133 C   0  0  0  0  0  0  0  0  0  0  0  0
  -28.5338    2.5348   29.8541 C   0  0  0  0  0  0  0  0  0  0  0  0
  -28.2586    1.3464   29.4258 C   0  0  0  0  0  0  0  0  0  0  0  0
  -28.5731    1.1970   28.0253 C   0  0  0  0  0  0  0  0  0  0  0  0
  -28.1713    3.8474   29.3175 C   0  0  0  0  0  0  0  0  0  0  0  0
  -29.3437   -1.7496   30.7491 C   0  0  0  0  0  0  0  0  0  0  0  0
  1  2  1  0
  1  8  1  0
  8  9  1  0
  9 10  1  0
 10 11  2  0
 11 12  1  0
  9 13  1  0
 12 13  1  0
  3 14  1  0
 13 14  1  0
 12 15  1  0
  8 16  1  0
  2  3  2  0
  3  4  1  0
  4  5  2  0
  5  6  1  0
  6  7  2  0
  7  2  1  0
M  END

$$$$
