No_2280-gen_results/8p0m/2024-11-27-11-27-31/
     RDKit          3D

 15 14  0  0  0  0  0  0  0  0999 V2000
  -27.9505   -0.5786   29.0402 P   0  0  0  0  0  0  0  0  0  0  0  0
  -27.2401    0.0613   28.4283 O   0  0  0  0  0  0  0  0  0  0  0  0
  -27.2444   -1.9817   29.3768 O   0  0  0  0  0  0  0  0  0  0  0  0
  -28.1843   -0.0275   30.5202 O   0  0  0  0  0  0  0  0  0  0  0  0
  -29.3836   -0.9386   28.6565 O   0  0  0  0  0  0  0  0  0  0  0  0
  -25.7611    0.2071   28.3458 Cl  0  0  0  0  0  0  0  0  0  0  0  0
  -27.6192   -3.0031   30.2259 C   0  0  0  0  0  0  0  0  0  0  0  0
  -28.6174   -0.5427   31.3551 F   0  0  0  0  0  0  0  0  0  0  0  0
  -26.8589   -4.2720   29.9133 C   0  0  0  0  0  0  0  0  0  0  0  0
  -25.9124   -4.1731   29.1731 O   0  0  0  0  0  0  0  0  0  0  0  0
  -24.8353   -5.1320   29.3399 C   0  0  0  0  0  0  0  0  0  0  0  0
  -23.7570   -4.7558   28.4496 C   0  0  0  0  0  0  0  0  0  0  0  0
  -23.4006   -3.4624   28.5510 O   0  0  0  0  0  0  0  0  0  0  0  0
  -24.3669   -2.5565   29.1715 C   0  0  0  0  0  0  0  0  0  0  0  0
  -23.7221   -1.1646   29.1146 C   0  0  0  0  0  0  0  0  0  0  0  0
  1  2  1  0
  1  3  1  0
  1  4  1  0
  1  5  2  0
  2  6  1  0
  3  7  1  0
  4  8  1  0
  7  9  1  0
  9 10  1  0
 10 11  1  0
 11 12  1  0
 12 13  1  0
 13 14  1  0
 14 15  1  0
M  END

$$$$
