No_2363-gen_results/8p0m/2024-11-27-11-27-31/
     RDKit          3D

 35 37  0  0  0  0  0  0  0  0999 V2000
  -28.0162   -0.8135   28.8779 C   0  0  0  0  0  0  0  0  0  0  0  0
  -27.0636   -0.1189   28.6079 C   0  0  0  0  0  0  0  0  0  0  0  0
  -25.7647   -0.3897   29.0360 C   0  0  0  0  0  0  0  0  0  0  0  0
  -25.5296   -1.5302   29.9014 C   0  0  0  0  0  0  0  0  0  0  0  0
  -24.3236   -1.9076   30.4324 C   0  0  0  0  0  0  0  0  0  0  0  0
  -27.9274   -1.9227   29.7902 C   0  0  0  0  0  0  0  0  0  0  0  0
  -26.6914   -2.2806   30.2948 C   0  0  0  0  0  0  0  0  0  0  0  0
  -23.6374   -0.9128   31.2435 C   0  0  0  0  0  0  0  0  0  0  0  0
  -28.9938   -2.6977   30.1488 O   0  0  0  0  0  0  0  0  0  0  0  0
  -23.5751    0.4253   30.8213 C   0  0  0  0  0  0  0  0  0  0  0  0
  -30.0981   -2.1357   30.6574 C   0  0  0  0  0  0  0  0  0  0  0  0
  -30.5697   -2.8756   31.7153 C   0  0  0  0  0  0  0  0  0  0  0  0
  -31.5802   -2.4581   32.1335 F   0  0  0  0  0  0  0  0  0  0  0  0
  -29.6530   -2.7885   32.7423 F   0  0  0  0  0  0  0  0  0  0  0  0
  -30.6551   -4.1709   31.4260 F   0  0  0  0  0  0  0  0  0  0  0  0
  -31.0523   -2.0327   29.5553 N   0  0  0  0  0  0  0  0  0  0  0  0
  -27.1703    1.0336   27.6815 C   0  0  0  0  0  0  0  0  0  0  0  0
  -23.9108    0.7203   29.6073 C   0  0  0  0  0  0  0  0  0  0  0  0
  -23.1735    2.0389   29.2503 C   0  0  0  0  0  0  0  0  0  0  0  0
  -24.8932    0.2356   28.7832 C   0  0  0  0  0  0  0  0  0  0  0  0
  -23.0483    2.2711   27.8410 N   0  0  0  0  0  0  0  0  0  0  0  0
  -26.6420    1.1245   26.6563 O   0  0  0  0  0  0  0  0  0  0  0  0
  -28.2843    1.8522   27.9707 O   0  0  0  0  0  0  0  0  0  0  0  0
  -23.9626    2.9771   27.1919 C   0  0  0  0  0  0  0  0  0  0  0  0
  -24.7728    3.9756   27.7723 C   0  0  0  0  0  0  0  0  0  0  0  0
  -23.8363    3.0806   25.7497 C   0  0  0  0  0  0  0  0  0  0  0  0
  -25.6916    4.7516   27.0268 C   0  0  0  0  0  0  0  0  0  0  0  0
  -25.6133    4.6317   25.6462 C   0  0  0  0  0  0  0  0  0  0  0  0
  -24.7730    3.7872   25.0395 C   0  0  0  0  0  0  0  0  0  0  0  0
  -21.9861    1.5866   27.1928 C   0  0  0  0  0  0  0  0  0  0  0  0
  -31.3974   -0.7838   29.0283 C   0  0  0  0  0  0  0  0  0  0  0  0
  -32.3024   -0.8708   27.9521 C   0  0  0  0  0  0  0  0  0  0  0  0
  -32.5073    0.2846   27.2435 C   0  0  0  0  0  0  0  0  0  0  0  0
  -33.2229    0.3372   26.0726 C   0  0  0  0  0  0  0  0  0  0  0  0
  -33.7545   -0.9120   25.6328 C   0  0  0  0  0  0  0  0  0  0  0  0
  4  5  1  0
  5  8  1  0
  6  9  1  0
  8 10  1  0
  9 11  1  0
 11 12  1  0
 12 13  1  0
 12 14  1  0
 12 15  1  0
 11 16  1  0
  2 17  1  0
 10 18  2  0
 18 19  1  0
  3 20  1  0
 18 20  1  0
 19 21  1  0
 17 22  2  0
 17 23  1  0
 21 24  1  0
 21 30  1  0
 16 31  1  0
 31 32  2  3
 32 33  1  0
 33 34  2  3
 34 35  1  0
 24 25  2  0
 25 27  1  0
 27 28  2  0
 28 29  1  0
 29 26  2  0
 26 24  1  0
  1  2  2  0
  2  3  1  0
  3  4  2  0
  4  7  1  0
  7  6  2  0
  6  1  1  0
M  END

$$$$
