No_2334-gen_results/8p0m/2024-11-27-11-27-31/
     RDKit          3D

 14 14  0  0  0  0  0  0  0  0999 V2000
  -28.0162   -0.8135   28.8779 C   0  0  0  0  0  0  0  0  0  0  0  0
  -27.0636   -0.1189   28.6079 C   0  0  0  0  0  0  0  0  0  0  0  0
  -26.9515    1.1286   28.9566 N   0  0  0  0  0  0  0  0  0  0  0  0
  -29.1088   -0.2102   29.6318 C   0  0  0  0  0  0  0  0  0  0  0  0
  -30.1959   -1.0433   29.9956 C   0  0  0  0  0  0  0  0  0  0  0  0
  -29.0643    1.1092   29.9938 C   0  0  0  0  0  0  0  0  0  0  0  0
  -27.9090    1.7990   29.6019 C   0  0  0  0  0  0  0  0  0  0  0  0
  -30.0602   -2.2117   30.3098 O   0  0  0  0  0  0  0  0  0  0  0  0
  -31.3752   -0.4805   30.3723 N   0  0  0  0  0  0  0  0  0  0  0  0
  -32.4941   -1.2761   30.7794 C   0  0  0  0  0  0  0  0  0  0  0  0
  -25.9065   -0.6218   27.9480 N   0  0  0  0  0  0  0  0  0  0  0  0
  -24.6635   -0.3627   28.4882 C   0  0  0  0  0  0  0  0  0  0  0  0
  -23.8738   -1.0896   28.9996 C   0  0  0  0  0  0  0  0  0  0  0  0
  -22.5136   -0.7265   29.4162 C   0  0  0  0  0  0  0  0  0  0  0  0
  4  5  1  0
  5  8  2  0
  5  9  1  0
  9 10  1  0
  2 11  1  0
 11 12  1  0
 12 13  2  3
 13 14  1  0
  1  2  2  0
  2  3  1  0
  3  7  2  0
  7  6  1  0
  6  4  2  0
  4  1  1  0
M  END

$$$$
