No_2642-gen_results/8p0m/2024-11-27-11-27-31/
     RDKit          3D

 13 14  0  0  0  0  0  0  0  0999 V2000
  -28.0162   -0.8135   28.8779 C   0  0  0  0  0  0  0  0  0  0  0  0
  -28.4690   -0.7850   29.8287 C   0  0  0  0  0  0  0  0  0  0  0  0
  -26.5042   -0.7777   28.8766 C   0  0  0  0  0  0  0  0  0  0  0  0
  -25.6540   -0.6597   27.7191 C   0  0  0  0  0  0  0  0  0  0  0  0
  -27.9180   -0.9374   31.1824 C   0  0  0  0  0  0  0  0  0  0  0  0
  -26.5423   -0.9399   31.2606 C   0  0  0  0  0  0  0  0  0  0  0  0
  -25.7832   -0.8935   30.1201 C   0  0  0  0  0  0  0  0  0  0  0  0
  -25.2393    0.5761   27.4012 N   0  0  0  0  0  0  0  0  0  0  0  0
  -24.0556    0.9595   27.7670 C   0  0  0  0  0  0  0  0  0  0  0  0
  -23.6036    2.2855   27.2832 C   0  0  0  0  0  0  0  0  0  0  0  0
  -25.9488    1.4378   26.6175 C   0  0  0  0  0  0  0  0  0  0  0  0
  -25.5726    2.4165   26.4560 C   0  0  0  0  0  0  0  0  0  0  0  0
  -24.3119    3.0724   26.6335 C   0  0  0  0  0  0  0  0  0  0  0  0
  3  4  1  0
  4  8  1  0
  8  9  1  0
  8 11  1  0
 10 13  1  0
 12 13  1  0
  9 10  1  0
 12 11  1  0
  1  2  2  0
  2  5  1  0
  5  6  2  0
  6  7  1  0
  7  3  2  0
  3  1  1  0
M  END

$$$$
