No_2770-gen_results/8p0m/2024-11-27-11-27-31/
     RDKit          3D

 30 33  0  0  0  0  0  0  0  0999 V2000
  -28.0162   -0.8135   28.8779 C   0  0  0  0  0  0  0  0  0  0  0  0
  -27.0636   -0.1189   28.6079 C   0  0  0  0  0  0  0  0  0  0  0  0
  -26.9287    1.1713   29.0083 C   0  0  0  0  0  0  0  0  0  0  0  0
  -27.9560    1.7411   29.7840 C   0  0  0  0  0  0  0  0  0  0  0  0
  -29.0569   -0.3271   29.7466 C   0  0  0  0  0  0  0  0  0  0  0  0
  -28.9828    0.9722   30.1516 C   0  0  0  0  0  0  0  0  0  0  0  0
  -25.8815   -0.6260   27.7945 C   0  0  0  0  0  0  0  0  0  0  0  0
  -24.6972   -1.0572   28.6241 C   0  0  0  0  0  0  0  0  0  0  0  0
  -23.5810   -0.2730   28.8246 C   0  0  0  0  0  0  0  0  0  0  0  0
  -22.4967   -0.7887   29.5688 C   0  0  0  0  0  0  0  0  0  0  0  0
  -24.7363   -2.3397   29.2314 C   0  0  0  0  0  0  0  0  0  0  0  0
  -23.6092   -2.8367   29.8761 C   0  0  0  0  0  0  0  0  0  0  0  0
  -22.5404   -2.0023   30.0732 N   0  0  0  0  0  0  0  0  0  0  0  0
  -30.2963    1.5812   31.1310 Cl  0  0  0  0  0  0  0  0  0  0  0  0
  -23.4532    1.0866   28.2574 C   0  0  0  0  0  0  0  0  0  0  0  0
  -23.9017    2.1464   28.8448 C   0  0  0  0  0  0  0  0  0  0  0  0
  -23.7941    3.3353   28.1242 N   0  0  0  0  0  0  0  0  0  0  0  0
  -23.0709    1.3473   26.9205 C   0  0  0  0  0  0  0  0  0  0  0  0
  -23.3751    2.7412   26.8735 C   0  0  0  0  0  0  0  0  0  0  0  0
  -24.2768    2.3250   30.2179 N   0  0  0  0  0  0  0  0  0  0  0  0
  -24.6015    3.5081   30.8381 C   0  0  0  0  0  0  0  0  0  0  0  0
  -26.0021    3.4854   31.4672 C   0  0  0  0  0  0  0  0  0  0  0  0
  -25.8735    2.9424   32.8710 C   0  0  0  0  0  0  0  0  0  0  0  0
  -27.0294    3.3081   33.6702 C   0  0  0  0  0  0  0  0  0  0  0  0
  -27.5263    2.3878   34.4898 C   0  0  0  0  0  0  0  0  0  0  0  0
  -26.9272    1.1773   34.4516 C   0  0  0  0  0  0  0  0  0  0  0  0
  -25.9365    0.7640   33.5935 C   0  0  0  0  0  0  0  0  0  0  0  0
  -25.1466    1.9595   32.9844 O   0  0  0  0  0  0  0  0  0  0  0  0
  -27.5579    4.9276   33.6937 Cl  0  0  0  0  0  0  0  0  0  0  0  0
  -26.4340    4.8965   31.5162 N   0  0  0  0  0  0  0  0  0  0  0  0
  2  7  1  0
  7  8  1  0
  6 14  1  0
  9 15  1  0
 15 16  1  0
 16 17  2  0
 15 18  1  0
 17 19  1  0
 18 19  1  0
 16 20  1  0
 20 21  1  0
 21 22  1  0
 22 23  1  0
 23 24  1  0
 24 25  1  0
 25 26  2  0
 26 27  1  0
 23 28  1  0
 27 28  1  0
 24 29  1  0
 22 30  1  0
  8  9  1  0
  9 10  2  0
 10 13  1  0
 13 12  2  0
 12 11  1  0
 11  8  2  0
  1  2  2  0
  2  3  1  0
  3  4  2  0
  4  6  1  0
  6  5  2  0
  5  1  1  0
M  END

$$$$
