No_2701-gen_results/8p0m/2024-11-27-11-27-31/
     RDKit          3D

  9  8  0  0  0  0  0  0  0  0999 V2000
  -28.0162   -0.8135   28.8779 C   0  0  0  0  0  0  0  0  0  0  0  0
  -28.4690   -0.7850   29.8287 C   0  0  0  0  0  0  0  0  0  0  0  0
  -26.5042   -0.7777   28.8766 C   0  0  0  0  0  0  0  0  0  0  0  0
  -25.7622   -0.0022   27.9705 C   0  0  0  0  0  0  0  0  0  0  0  0
  -25.2031    1.1747   28.5115 C   0  0  0  0  0  0  0  0  0  0  0  0
  -30.0067   -0.7947   29.9058 C   0  0  0  0  0  0  0  0  0  0  0  0
  -30.7083   -1.3151   30.9310 C   0  0  0  0  0  0  0  0  0  0  0  0
  -25.7848    2.3036   28.4109 C   0  0  0  0  0  0  0  0  0  0  0  0
  -25.1676    3.4813   28.8368 C   0  0  0  0  0  0  0  0  0  0  0  0
  1  2  1  0
  1  3  1  0
  3  4  1  0
  4  5  2  3
  2  6  1  0
  6  7  1  0
  5  8  1  0
  8  9  2  0
M  END

$$$$
