No_2173-gen_results/8p0m/2024-11-27-11-27-31/
     RDKit          3D

 31 37  0  0  0  0  0  0  0  0999 V2000
  -28.0162   -0.8135   28.8779 C   0  0  0  0  0  0  0  0  0  0  0  0
  -28.4690   -0.7850   29.8287 C   0  0  0  0  0  0  0  0  0  0  0  0
  -28.1960    0.3478   28.0550 C   0  0  0  0  0  0  0  0  0  0  0  0
  -29.0191    1.3501   28.3782 C   0  0  0  0  0  0  0  0  0  0  0  0
  -29.4107    0.1803   30.3782 C   0  0  0  0  0  0  0  0  0  0  0  0
  -29.6059    1.2495   29.6193 C   0  0  0  0  0  0  0  0  0  0  0  0
  -27.5426    0.5225   26.6829 C   0  0  0  0  0  0  0  0  0  0  0  0
  -25.7639    0.2485   26.6302 Br  0  0  0  0  0  0  0  0  0  0  0  0
  -28.1699    0.7331   25.4608 C   0  0  0  0  0  0  0  0  0  0  0  0
  -29.3742    1.1364   25.4203 C   0  0  0  0  0  0  0  0  0  0  0  0
  -29.9787    1.2665   24.1085 C   0  0  0  0  0  0  0  0  0  0  0  0
  -31.2808    1.7744   23.9750 C   0  0  0  0  0  0  0  0  0  0  0  0
  -31.9436    2.3178   25.0730 C   0  0  0  0  0  0  0  0  0  0  0  0
  -31.3652    2.2559   26.2914 C   0  0  0  0  0  0  0  0  0  0  0  0
  -30.1260    1.7367   26.4913 C   0  0  0  0  0  0  0  0  0  0  0  0
  -29.6380    1.5638   27.8040 C   0  0  0  0  0  0  0  0  0  0  0  0
  -31.0315    1.9879   28.4821 N   0  0  0  0  0  0  0  0  0  0  0  0
  -31.8568    2.5188   27.5044 C   0  0  0  0  0  0  0  0  0  0  0  0
  -30.3656    2.2632   30.0039 N   0  0  0  0  0  0  0  0  0  0  0  0
  -32.0513    4.0089   27.8361 C   0  0  0  0  0  0  0  0  0  0  0  0
  -33.1584    1.7304   27.8503 C   0  0  0  0  0  0  0  0  0  0  0  0
  -34.3256    2.2869   27.8533 C   0  0  0  0  0  0  0  0  0  0  0  0
  -33.3372    4.6064   27.7269 C   0  0  0  0  0  0  0  0  0  0  0  0
  -35.5233    1.5677   28.0412 C   0  0  0  0  0  0  0  0  0  0  0  0
  -34.4061    3.7823   27.8637 C   0  0  0  0  0  0  0  0  0  0  0  0
  -33.0711    0.3131   27.8499 C   0  0  0  0  0  0  0  0  0  0  0  0
  -34.1976   -0.4706   27.7745 C   0  0  0  0  0  0  0  0  0  0  0  0
  -35.4252    0.1818   28.0801 C   0  0  0  0  0  0  0  0  0  0  0  0
  -30.8514    4.8900   27.7760 C   0  0  0  0  0  0  0  0  0  0  0  0
  -30.2460    5.6498   27.5364 C   0  0  0  0  0  0  0  0  0  0  0  0
  -29.1202    6.4444   27.3238 C   0  0  0  0  0  0  0  0  0  0  0  0
  3  7  1  0
  7  8  1  0
  7  9  1  0
  9 10  1  0
  4 16  1  0
 15 16  1  0
 16 17  1  0
 14 18  1  0
 17 18  1  0
  6 19  1  0
 17 19  1  0
 18 20  1  0
 18 21  1  0
 22 25  1  0
 23 25  1  0
 20 29  1  0
 29 30  3  0
 30 31  1  0
 20 23  1  0
  1  2  2  0
  2  5  1  0
  5  6  2  0
  6  4  1  0
  4  3  2  0
  3  1  1  0
 10 11  2  0
 11 12  1  0
 12 13  2  0
 13 14  1  0
 14 15  2  0
 15 10  1  0
 21 26  2  0
 26 27  1  0
 27 28  2  0
 28 24  1  0
 24 22  2  0
 22 21  1  0
M  END

$$$$
