No_22-gen_results/8p0m/2024-11-27-11-27-31/
     RDKit          3D

 16 17  0  0  0  0  0  0  0  0999 V2000
  -28.0162   -0.8135   28.8779 C   0  0  0  0  0  0  0  0  0  0  0  0
  -27.0636   -0.1189   28.6079 C   0  0  0  0  0  0  0  0  0  0  0  0
  -27.0010    0.6913   27.4910 C   0  0  0  0  0  0  0  0  0  0  0  0
  -25.8548    1.4825   27.0830 C   0  0  0  0  0  0  0  0  0  0  0  0
  -24.6901    1.4526   27.8807 C   0  0  0  0  0  0  0  0  0  0  0  0
  -23.4878    2.1451   27.6011 C   0  0  0  0  0  0  0  0  0  0  0  0
  -25.9158   -0.1417   29.5581 C   0  0  0  0  0  0  0  0  0  0  0  0
  -24.6894    0.6408   29.1304 C   0  0  0  0  0  0  0  0  0  0  0  0
  -22.4485    2.0783   28.5600 C   0  0  0  0  0  0  0  0  0  0  0  0
  -22.5153    1.1730   29.5798 C   0  0  0  0  0  0  0  0  0  0  0  0
  -23.6165    0.5065   29.9716 C   0  0  0  0  0  0  0  0  0  0  0  0
  -28.0255   -1.5748   30.1646 N   0  0  0  0  0  0  0  0  0  0  0  0
  -29.1069   -2.3451   30.5294 C   0  0  0  0  0  0  0  0  0  0  0  0
  -28.9164   -3.2144   31.6764 C   0  0  0  0  0  0  0  0  0  0  0  0
  -29.3265   -2.6697   32.9122 Cl  0  0  0  0  0  0  0  0  0  0  0  0
  -29.5018   -4.5124   31.3895 F   0  0  0  0  0  0  0  0  0  0  0  0
  1  2  1  0
  1 12  1  0
 12 13  2  3
 13 14  1  0
 14 15  1  0
 14 16  1  0
  2  3  2  0
  3  4  1  0
  4  5  2  0
  8  7  2  0
  7  2  1  0
  5  6  1  0
  6  9  2  0
  9 10  1  0
 10 11  2  0
 11  8  1  0
  8  5  1  0
M  END

$$$$
