No_2959-gen_results/8p0m/2024-11-27-11-27-31/
     RDKit          3D

 20 21  0  0  0  0  0  0  0  0999 V2000
  -28.0162   -0.8135   28.8779 C   0  0  0  0  0  0  0  0  0  0  0  0
  -27.0636   -0.1189   28.6079 C   0  0  0  0  0  0  0  0  0  0  0  0
  -25.7647   -0.3897   29.0360 C   0  0  0  0  0  0  0  0  0  0  0  0
  -25.5296   -1.5302   29.9014 C   0  0  0  0  0  0  0  0  0  0  0  0
  -26.6888   -2.2893   30.1810 C   0  0  0  0  0  0  0  0  0  0  0  0
  -27.8727   -1.9508   29.7373 C   0  0  0  0  0  0  0  0  0  0  0  0
  -24.5417    0.7162   28.6404 Cl  0  0  0  0  0  0  0  0  0  0  0  0
  -28.9006   -2.9550   30.2613 C   0  0  0  0  0  0  0  0  0  0  0  0
  -28.6961   -4.1790   30.5526 N   0  0  0  0  0  0  0  0  0  0  0  0
  -30.1179   -2.5244   30.3287 O   0  0  0  0  0  0  0  0  0  0  0  0
  -29.6734   -5.1624   30.9214 C   0  0  0  0  0  0  0  0  0  0  0  0
  -30.6776   -5.3719   29.9726 C   0  0  0  0  0  0  0  0  0  0  0  0
  -31.8894   -4.9907   30.3400 C   0  0  0  0  0  0  0  0  0  0  0  0
  -32.8702   -5.0795   29.3331 C   0  0  0  0  0  0  0  0  0  0  0  0
  -32.5641   -5.5462   28.0184 C   0  0  0  0  0  0  0  0  0  0  0  0
  -31.2233   -5.8927   27.7147 C   0  0  0  0  0  0  0  0  0  0  0  0
  -30.2878   -5.7395   28.6557 C   0  0  0  0  0  0  0  0  0  0  0  0
  -33.5885   -5.7140   26.9271 C   0  0  0  0  0  0  0  0  0  0  0  0
  -34.5933   -5.9585   27.3276 O   0  0  0  0  0  0  0  0  0  0  0  0
  -33.2349   -5.5608   25.7281 O   0  0  0  0  0  0  0  0  0  0  0  0
  3  7  1  0
  6  8  1  0
  8  9  1  0
  8 10  2  0
  9 11  1  0
 11 12  1  0
 15 18  1  0
 18 19  1  0
 18 20  2  0
 12 13  2  0
 13 14  1  0
 14 15  2  0
 15 16  1  0
 16 17  2  0
 17 12  1  0
  1  2  2  0
  2  3  1  0
  3  4  2  0
  4  5  1  0
  5  6  2  0
  6  1  1  0
M  END

$$$$
