No_2997-gen_results/8p0m/2024-11-27-11-27-31/
     RDKit          3D

 12 12  0  0  0  0  0  0  0  0999 V2000
  -28.0162   -0.8135   28.8779 C   0  0  0  0  0  0  0  0  0  0  0  0
  -27.0636   -0.1190   28.6079 C   0  0  0  0  0  0  0  0  0  0  0  0
  -25.7923   -0.4302   29.0761 C   0  0  0  0  0  0  0  0  0  0  0  0
  -25.5681   -1.2411   29.7572 C   0  0  0  0  0  0  0  0  0  0  0  0
  -26.6114   -2.1840   30.2439 C   0  0  0  0  0  0  0  0  0  0  0  0
  -27.8191   -1.9189   29.8034 C   0  0  0  0  0  0  0  0  0  0  0  0
  -28.9162   -2.8082   30.2727 C   0  0  0  0  0  0  0  0  0  0  0  0
  -30.0338   -2.4049   30.2773 O   0  0  0  0  0  0  0  0  0  0  0  0
  -28.5895   -4.1133   30.3778 O   0  0  0  0  0  0  0  0  0  0  0  0
  -27.2372    1.0905   27.6656 C   0  0  0  0  0  0  0  0  0  0  0  0
  -26.5972    1.3374   26.7586 O   0  0  0  0  0  0  0  0  0  0  0  0
  -28.3014    1.8087   27.9610 O   0  0  0  0  0  0  0  0  0  0  0  0
  6  7  1  0
  7  8  2  0
  7  9  1  0
  2 10  1  0
 10 11  2  0
 10 12  1  0
  1  2  2  0
  2  3  1  0
  3  4  2  0
  4  5  1  0
  5  6  2  0
  6  1  1  0
M  END

$$$$
