No_2848-gen_results/8p0m/2024-11-27-11-27-31/
     RDKit          3D

 18 19  0  0  0  0  0  0  0  0999 V2000
  -28.0162   -0.8135   28.8779 C   0  0  0  0  0  0  0  0  0  0  0  0
  -27.0636   -0.1190   28.6079 C   0  0  0  0  0  0  0  0  0  0  0  0
  -26.9716    0.7139   27.5060 C   0  0  0  0  0  0  0  0  0  0  0  0
  -25.8205    1.4909   27.1160 C   0  0  0  0  0  0  0  0  0  0  0  0
  -24.6562    1.4242   27.9180 C   0  0  0  0  0  0  0  0  0  0  0  0
  -24.6847    0.5901   29.0659 C   0  0  0  0  0  0  0  0  0  0  0  0
  -25.8099   -0.1266   29.3338 C   0  0  0  0  0  0  0  0  0  0  0  0
  -28.6943   -0.4734   30.1587 C   0  0  0  0  0  0  0  0  0  0  0  0
  -29.7865   -1.3251   30.6371 C   0  0  0  0  0  0  0  0  0  0  0  0
  -23.4524    2.1889   27.6083 C   0  0  0  0  0  0  0  0  0  0  0  0
  -22.5786    2.2579   28.4957 O   0  0  0  0  0  0  0  0  0  0  0  0
  -23.2628    2.5697   26.3636 O   0  0  0  0  0  0  0  0  0  0  0  0
  -29.9956   -2.2964   30.1026 C   0  0  0  0  0  0  0  0  0  0  0  0
  -29.2542   -3.0499   29.2881 C   0  0  0  0  0  0  0  0  0  0  0  0
  -28.1324   -2.3554   28.7841 C   0  0  0  0  0  0  0  0  0  0  0  0
  -28.1598    0.8065   26.6448 C   0  0  0  0  0  0  0  0  0  0  0  0
  -29.0528    1.1463   27.0226 O   0  0  0  0  0  0  0  0  0  0  0  0
  -27.9912    0.3902   25.4133 O   0  0  0  0  0  0  0  0  0  0  0  0
  5 10  1  0
 10 11  2  0
 10 12  1  0
  3 16  1  0
 16 17  2  0
 16 18  1  0
  1  2  1  0
  1  8  2  0
  8  9  1  0
  9 13  2  0
 13 14  1  0
 14 15  2  0
 15  1  1  0
  2  3  2  0
  3  4  1  0
  4  5  2  0
  5  6  1  0
  6  7  2  0
  7  2  1  0
M  END

$$$$
