No_2139-gen_results/8p0m/2024-11-27-11-27-31/
     RDKit          3D

 22 23  0  0  0  0  0  0  0  0999 V2000
  -28.0162   -0.8135   28.8779 C   0  0  0  0  0  0  0  0  0  0  0  0
  -28.4690   -0.7850   29.8287 C   0  0  0  0  0  0  0  0  0  0  0  0
  -27.1356    0.2359   28.5352 C   0  0  0  0  0  0  0  0  0  0  0  0
  -26.8745    1.2825   29.3982 C   0  0  0  0  0  0  0  0  0  0  0  0
  -27.5070    1.2380   30.6295 C   0  0  0  0  0  0  0  0  0  0  0  0
  -28.3269    0.1637   30.9240 C   0  0  0  0  0  0  0  0  0  0  0  0
  -26.4110    0.3070   27.2192 C   0  0  0  0  0  0  0  0  0  0  0  0
  -25.0121    0.3340   27.3197 C   0  0  0  0  0  0  0  0  0  0  0  0
  -24.3238    0.1474   28.5019 C   0  0  0  0  0  0  0  0  0  0  0  0
  -23.1020    0.5760   28.7502 C   0  0  0  0  0  0  0  0  0  0  0  0
  -22.3544    0.2213   29.9313 C   0  0  0  0  0  0  0  0  0  0  0  0
  -23.0512   -0.4315   30.9388 C   0  0  0  0  0  0  0  0  0  0  0  0
  -24.7119   -0.5572   29.7866 C   0  0  0  0  0  0  0  0  0  0  0  0
  -24.0955   -0.9033   30.8349 C   0  0  0  0  0  0  0  0  0  0  0  0
  -27.1215    0.4119   26.0436 C   0  0  0  0  0  0  0  0  0  0  0  0
  -28.3048    0.6460   25.9360 N   0  0  0  0  0  0  0  0  0  0  0  0
  -26.4518    0.2931   24.9321 F   0  0  0  0  0  0  0  0  0  0  0  0
  -29.0772    0.5099   24.7795 C   0  0  0  0  0  0  0  0  0  0  0  0
  -27.2854    2.3116   31.6470 C   0  0  0  0  0  0  0  0  0  0  0  0
  -26.3980    3.0056   31.6622 N   0  0  0  0  0  0  0  0  0  0  0  0
  -26.1717    4.1027   31.6872 C   0  0  0  0  0  0  0  0  0  0  0  0
  -24.7827    4.7534   31.8382 C   0  0  0  0  0  0  0  0  0  0  0  0
  3  7  1  0
  7  8  2  3
  8  9  1  0
  7 15  1  0
 15 16  1  0
 15 17  1  0
 16 18  1  0
  5 19  1  0
 19 20  1  0
 20 21  1  0
 21 22  2  0
  1  2  2  0
  2  6  1  0
  6  5  2  0
  5  4  1  0
  4  3  2  0
  3  1  1  0
  9 10  2  0
 10 11  1  0
 11 12  2  0
 12 14  1  0
 14 13  2  0
 13  9  1  0
M  END

$$$$
