No_2147-gen_results/8p0m/2024-11-27-11-27-31/
     RDKit          3D

 16 17  0  0  0  0  0  0  0  0999 V2000
  -28.0162   -0.8135   28.8779 C   0  0  0  0  0  0  0  0  0  0  0  0
  -27.0636   -0.1190   28.6079 C   0  0  0  0  0  0  0  0  0  0  0  0
  -25.7647   -0.3897   29.0360 C   0  0  0  0  0  0  0  0  0  0  0  0
  -24.5516    0.4058   28.7646 C   0  0  0  0  0  0  0  0  0  0  0  0
  -24.6957    1.4480   27.7988 C   0  0  0  0  0  0  0  0  0  0  0  0
  -25.9755    1.7250   27.3077 C   0  0  0  0  0  0  0  0  0  0  0  0
  -27.0718    1.0134   27.6535 C   0  0  0  0  0  0  0  0  0  0  0  0
  -29.0296   -0.5631   28.2462 F   0  0  0  0  0  0  0  0  0  0  0  0
  -28.3112   -0.6685   30.2723 F   0  0  0  0  0  0  0  0  0  0  0  0
  -23.3585    1.9608   27.5320 C   0  0  0  0  0  0  0  0  0  0  0  0
  -23.2244    2.9625   26.6747 N   0  0  0  0  0  0  0  0  0  0  0  0
  -22.3187    1.5903   28.0114 F   0  0  0  0  0  0  0  0  0  0  0  0
  -25.5102   -1.3643   29.8925 F   0  0  0  0  0  0  0  0  0  0  0  0
  -26.0460    2.8322   26.3149 C   0  0  0  0  0  0  0  0  0  0  0  0
  -24.5559    3.4849   26.0807 C   0  0  0  0  0  0  0  0  0  0  0  0
  -23.4861   -0.0119   29.2681 F   0  0  0  0  0  0  0  0  0  0  0  0
  1  8  1  0
  1  9  1  0
 10 12  1  0
  3 13  1  0
  4 16  1  0
  1  2  1  0
  2  3  2  0
  3  4  1  0
  4  5  2  0
  6  7  2  0
  7  2  1  0
  5  6  1  0
  6 14  1  0
 14 15  2  0
 15 11  1  0
 11 10  2  0
 10  5  1  0
M  END

$$$$
