No_2152-gen_results/8p0m/2024-11-27-11-27-31/
     RDKit          3D

 33 37  0  0  0  0  0  0  0  0999 V2000
  -28.1229   -1.3353   28.4874 O   0  0  0  0  0  0  0  0  0  0  0  0
  -27.4806   -0.4044   28.7094 C   0  0  0  0  0  0  0  0  0  0  0  0
  -26.3804   -0.0867   27.9394 C   0  0  0  0  0  0  0  0  0  0  0  0
  -27.4232    0.1749   30.0549 N   0  0  0  0  0  0  0  0  0  0  0  0
  -25.4065    0.7421   28.2860 C   0  0  0  0  0  0  0  0  0  0  0  0
  -25.5698    1.4353   29.5751 C   0  0  0  0  0  0  0  0  0  0  0  0
  -26.5341    1.0730   30.4232 C   0  0  0  0  0  0  0  0  0  0  0  0
  -24.3098    1.4180   27.5896 C   0  0  0  0  0  0  0  0  0  0  0  0
  -23.1983    0.8470   27.3863 C   0  0  0  0  0  0  0  0  0  0  0  0
  -22.0493    1.6840   26.8558 C   0  0  0  0  0  0  0  0  0  0  0  0
  -24.5471    2.6937   26.8879 C   0  0  0  0  0  0  0  0  0  0  0  0
  -23.5845    3.3880   26.2262 C   0  0  0  0  0  0  0  0  0  0  0  0
  -22.3431    2.8386   26.2021 C   0  0  0  0  0  0  0  0  0  0  0  0
  -22.8318   -0.2175   28.0992 O   0  0  0  0  0  0  0  0  0  0  0  0
  -22.1590   -0.4196   29.3701 C   0  0  0  0  0  0  0  0  0  0  0  0
  -24.4346    2.6057   30.1045 Cl  0  0  0  0  0  0  0  0  0  0  0  0
  -25.9751    3.2732   26.8671 C   0  0  0  0  0  0  0  0  0  0  0  0
  -26.2669    4.4142   27.4223 N   0  0  0  0  0  0  0  0  0  0  0  0
  -27.5253    4.8873   27.4386 C   0  0  0  0  0  0  0  0  0  0  0  0
  -26.9491    2.6631   26.1416 C   0  0  0  0  0  0  0  0  0  0  0  0
  -26.7711    1.4057   25.4214 C   0  0  0  0  0  0  0  0  0  0  0  0
  -28.2471    3.1727   26.0736 C   0  0  0  0  0  0  0  0  0  0  0  0
  -29.3474    2.5649   25.3573 C   0  0  0  0  0  0  0  0  0  0  0  0
  -28.4753    4.4008   26.7967 C   0  0  0  0  0  0  0  0  0  0  0  0
  -27.7275    0.8531   24.6059 C   0  0  0  0  0  0  0  0  0  0  0  0
  -29.0021    1.4030   24.6868 C   0  0  0  0  0  0  0  0  0  0  0  0
  -30.0566    0.7207   23.9081 C   0  0  0  0  0  0  0  0  0  0  0  0
  -31.1310    0.2769   24.7514 C   0  0  0  0  0  0  0  0  0  0  0  0
  -32.0603   -0.5419   24.2749 C   0  0  0  0  0  0  0  0  0  0  0  0
  -33.1209   -0.9929   25.0891 C   0  0  0  0  0  0  0  0  0  0  0  0
  -33.2277   -0.5595   26.4314 C   0  0  0  0  0  0  0  0  0  0  0  0
  -32.2590    0.2722   26.9342 C   0  0  0  0  0  0  0  0  0  0  0  0
  -31.2383    0.7126   26.1633 C   0  0  0  0  0  0  0  0  0  0  0  0
  1  2  2  0
  2  3  1  0
  2  4  1  0
  5  6  1  0
  5  8  1  0
  9 14  1  0
 14 15  1  0
  6 16  1  0
 11 17  1  0
 26 27  1  0
 27 28  1  0
  3  5  1  0
  6  7  1  0
  7  4  1  0
  8  9  2  0
  9 10  1  0
 10 13  2  0
 13 12  1  0
 12 11  2  0
 11  8  1  0
 20 21  2  0
 21 25  1  0
 25 26  2  0
 26 23  1  0
 23 22  2  0
 17 18  2  0
 18 19  1  0
 19 24  2  0
 24 22  1  0
 22 20  1  0
 20 17  1  0
 28 29  2  0
 29 30  1  0
 30 31  2  0
 31 32  1  0
 32 33  2  0
 33 28  1  0
M  END

$$$$
