No_20-gen_results/8p0m/2024-11-27-11-27-31/
     RDKit          3D

 29 31  0  0  0  0  0  0  0  0999 V2000
  -28.0162   -0.8135   28.8779 C   0  0  0  0  0  0  0  0  0  0  0  0
  -27.0636   -0.1189   28.6079 C   0  0  0  0  0  0  0  0  0  0  0  0
  -26.9287    1.1713   29.0083 C   0  0  0  0  0  0  0  0  0  0  0  0
  -25.7702    2.0341   28.6884 C   0  0  0  0  0  0  0  0  0  0  0  0
  -24.7141    1.4431   27.9188 C   0  0  0  0  0  0  0  0  0  0  0  0
  -24.8590    0.0783   27.5836 C   0  0  0  0  0  0  0  0  0  0  0  0
  -25.9647   -0.6606   27.9164 C   0  0  0  0  0  0  0  0  0  0  0  0
  -28.6995   -0.6441   30.0766 N   0  0  0  0  0  0  0  0  0  0  0  0
  -29.8035   -1.3645   30.5061 C   0  0  0  0  0  0  0  0  0  0  0  0
  -30.3751   -2.1790   29.7448 C   0  0  0  0  0  0  0  0  0  0  0  0
  -30.4580   -3.5170   30.2214 C   0  0  0  0  0  0  0  0  0  0  0  0
  -29.6573   -4.0825   30.4221 C   0  0  0  0  0  0  0  0  0  0  0  0
  -28.2220   -3.6232   30.4926 C   0  0  0  0  0  0  0  0  0  0  0  0
  -28.0588   -2.3842   31.1162 C   0  0  0  0  0  0  0  0  0  0  0  0
  -28.6071   -1.2642   31.0281 C   0  0  0  0  0  0  0  0  0  0  0  0
  -28.3322   -0.5356   32.3075 C   0  0  0  0  0  0  0  0  0  0  0  0
  -27.0326   -0.0538   32.5241 C   0  0  0  0  0  0  0  0  0  0  0  0
  -26.6255    0.6437   33.6002 C   0  0  0  0  0  0  0  0  0  0  0  0
  -27.5236    1.1113   34.5120 C   0  0  0  0  0  0  0  0  0  0  0  0
  -28.8489    0.7318   34.3591 C   0  0  0  0  0  0  0  0  0  0  0  0
  -29.2733   -0.0805   33.2919 C   0  0  0  0  0  0  0  0  0  0  0  0
  -26.6994   -2.3331   31.6615 O   0  0  0  0  0  0  0  0  0  0  0  0
  -23.5228    2.1627   27.6051 C   0  0  0  0  0  0  0  0  0  0  0  0
  -22.8223    2.5141   28.3892 O   0  0  0  0  0  0  0  0  0  0  0  0
  -23.3330    2.3046   26.2565 O   0  0  0  0  0  0  0  0  0  0  0  0
  -31.2066   -1.7294   28.6362 C   0  0  0  0  0  0  0  0  0  0  0  0
  -31.1614   -0.6073   28.2113 O   0  0  0  0  0  0  0  0  0  0  0  0
  -31.9968   -2.5191   28.0494 O   0  0  0  0  0  0  0  0  0  0  0  0
  -27.8115   -0.7546   33.2360 Cl  0  0  0  0  0  0  0  0  0  0  0  0
  1  2  1  0
  1  8  1  0
  8  9  1  0
  9 10  1  0
 10 11  2  3
 11 12  1  0
 12 13  2  3
 13 14  1  0
  8 15  1  0
 14 15  1  0
 15 16  1  0
 16 17  1  0
 17 18  2  0
 18 19  1  0
 19 20  2  0
 16 21  1  0
 20 21  1  0
 14 22  1  0
  5 23  1  0
 23 24  2  0
 23 25  1  0
 10 26  1  0
 26 27  2  0
 26 28  1  0
 16 29  1  0
  2  3  2  0
  3  4  1  0
  4  5  2  0
  5  6  1  0
  6  7  2  0
  7  2  1  0
M  END

$$$$
