No_2983-gen_results/8p0m/2024-11-27-11-27-31/
     RDKit          3D

 13 14  0  0  0  0  0  0  0  0999 V2000
  -28.0162   -0.8135   28.8779 C   0  0  0  0  0  0  0  0  0  0  0  0
  -27.0636   -0.1189   28.6079 C   0  0  0  0  0  0  0  0  0  0  0  0
  -25.7923   -0.4302   29.0761 C   0  0  0  0  0  0  0  0  0  0  0  0
  -25.5681   -1.2411   29.7572 C   0  0  0  0  0  0  0  0  0  0  0  0
  -26.6114   -2.1840   30.2439 C   0  0  0  0  0  0  0  0  0  0  0  0
  -27.8191   -1.9189   29.8034 C   0  0  0  0  0  0  0  0  0  0  0  0
  -29.1062   -2.9240   30.3218 Cl  0  0  0  0  0  0  0  0  0  0  0  0
  -27.2536    1.0783   27.6608 C   0  0  0  0  0  0  0  0  0  0  0  0
  -26.8574    2.1827   27.7511 C   0  0  0  0  0  0  0  0  0  0  0  0
  -27.0086    3.2338   26.7316 C   0  0  0  0  0  0  0  0  0  0  0  0
  -27.6349    2.8797   25.5212 C   0  0  0  0  0  0  0  0  0  0  0  0
  -27.6516    0.8456   26.2281 C   0  0  0  0  0  0  0  0  0  0  0  0
  -27.8764    1.6502   25.3211 C   0  0  0  0  0  0  0  0  0  0  0  0
  6  7  1  0
  2  8  1  0
  1  2  2  0
  2  3  1  0
  3  4  2  0
  4  5  1  0
  5  6  2  0
  6  1  1  0
  8  9  2  0
  9 10  1  0
 10 11  2  0
 11 13  1  0
 13 12  2  0
 12  8  1  0
M  END

$$$$
