No_2726-gen_results/8p0m/2024-11-27-11-27-31/
     RDKit          3D

 20 20  0  0  0  0  0  0  0  0999 V2000
  -28.0162   -0.8135   28.8779 C   0  0  0  0  0  0  0  0  0  0  0  0
  -27.0636   -0.1190   28.6079 C   0  0  0  0  0  0  0  0  0  0  0  0
  -26.9287    1.1713   29.0083 C   0  0  0  0  0  0  0  0  0  0  0  0
  -25.7702    2.0341   28.6884 C   0  0  0  0  0  0  0  0  0  0  0  0
  -24.7141    1.4431   27.9188 C   0  0  0  0  0  0  0  0  0  0  0  0
  -24.8590    0.0783   27.5836 C   0  0  0  0  0  0  0  0  0  0  0  0
  -25.9647   -0.6606   27.9164 C   0  0  0  0  0  0  0  0  0  0  0  0
  -27.9821   -1.6367   30.0748 N   0  0  0  0  0  0  0  0  0  0  0  0
  -29.1950   -0.6035   28.4621 O   0  0  0  0  0  0  0  0  0  0  0  0
  -29.0495   -2.5038   30.5225 C   0  0  0  0  0  0  0  0  0  0  0  0
  -26.6889   -1.8860   30.7614 C   0  0  0  0  0  0  0  0  0  0  0  0
  -23.5137    2.1536   27.5449 C   0  0  0  0  0  0  0  0  0  0  0  0
  -23.3563    2.7606   26.7497 F   0  0  0  0  0  0  0  0  0  0  0  0
  -22.9468    2.7384   28.7182 F   0  0  0  0  0  0  0  0  0  0  0  0
  -29.4371   -2.2255   31.8521 C   0  0  0  0  0  0  0  0  0  0  0  0
  -29.3688   -3.4554   32.4645 F   0  0  0  0  0  0  0  0  0  0  0  0
  -28.5504   -1.4568   32.4729 F   0  0  0  0  0  0  0  0  0  0  0  0
  -30.6643   -1.8127   31.8778 F   0  0  0  0  0  0  0  0  0  0  0  0
  -22.4205    1.1099   27.5029 F   0  0  0  0  0  0  0  0  0  0  0  0
  -29.3865   -3.3705   29.7782 O   0  0  0  0  0  0  0  0  0  0  0  0
  1  2  1  0
  1  8  1  0
  1  9  2  0
  8 10  1  0
  8 11  1  0
  5 12  1  0
 12 13  1  0
 12 14  1  0
 10 15  1  0
 15 16  1  0
 15 17  1  0
 15 18  1  0
 12 19  1  0
 10 20  2  0
  2  3  2  0
  3  4  1  0
  4  5  2  0
  5  6  1  0
  6  7  2  0
  7  2  1  0
M  END

$$$$
