No_2205-gen_results/8p0m/2024-11-27-11-27-31/
     RDKit          3D

 24 25  0  0  0  0  0  0  0  0999 V2000
  -28.0162   -0.8135   28.8779 C   0  0  0  0  0  0  0  0  0  0  0  0
  -27.0636   -0.1189   28.6079 C   0  0  0  0  0  0  0  0  0  0  0  0
  -25.7923   -0.4302   29.0761 C   0  0  0  0  0  0  0  0  0  0  0  0
  -24.5456    0.3494   28.8225 C   0  0  0  0  0  0  0  0  0  0  0  0
  -24.6586    1.4196   27.8878 C   0  0  0  0  0  0  0  0  0  0  0  0
  -25.9471    1.6811   27.3792 C   0  0  0  0  0  0  0  0  0  0  0  0
  -27.0439    0.9739   27.6871 C   0  0  0  0  0  0  0  0  0  0  0  0
  -27.9517   -1.7518   29.9375 N   0  0  0  0  0  0  0  0  0  0  0  0
  -29.2110   -0.3383   28.7434 O   0  0  0  0  0  0  0  0  0  0  0  0
  -29.0271   -2.5366   30.4973 C   0  0  0  0  0  0  0  0  0  0  0  0
  -23.4606    2.1651   27.5966 C   0  0  0  0  0  0  0  0  0  0  0  0
  -22.2709    1.7634   28.0862 N   0  0  0  0  0  0  0  0  0  0  0  0
  -23.5150    3.0472   26.6945 O   0  0  0  0  0  0  0  0  0  0  0  0
  -29.2723   -2.1348   31.7409 C   0  0  0  0  0  0  0  0  0  0  0  0
  -29.5261   -3.2886   32.4694 F   0  0  0  0  0  0  0  0  0  0  0  0
  -28.2600   -1.5773   32.3951 F   0  0  0  0  0  0  0  0  0  0  0  0
  -30.3452   -1.3554   31.7980 F   0  0  0  0  0  0  0  0  0  0  0  0
  -22.0209    0.8243   28.9877 C   0  0  0  0  0  0  0  0  0  0  0  0
  -23.1800   -0.0313   29.3478 C   0  0  0  0  0  0  0  0  0  0  0  0
  -29.2892   -3.5183   29.8696 O   0  0  0  0  0  0  0  0  0  0  0  0
  -23.0299   -1.1082   30.2766 C   0  0  0  0  0  0  0  0  0  0  0  0
  -22.4384   -0.7133   31.2910 F   0  0  0  0  0  0  0  0  0  0  0  0
  -22.3569   -2.0935   29.7095 F   0  0  0  0  0  0  0  0  0  0  0  0
  -24.1914   -1.6406   30.6877 F   0  0  0  0  0  0  0  0  0  0  0  0
  1  2  1  0
  1  8  1  0
  1  9  2  0
  8 10  1  0
  5 11  1  0
 11 12  1  0
 11 13  2  0
 10 14  1  0
 14 15  1  0
 14 16  1  0
 14 17  1  0
 12 18  1  0
  4 19  1  0
 10 20  2  0
 19 21  1  0
 21 22  1  0
 21 23  1  0
 21 24  1  0
 19 18  1  0
  2  3  2  0
  3  4  1  0
  4  5  2  0
  5  6  1  0
  6  7  2  0
  7  2  1  0
M  END

$$$$
