No_2327-gen_results/8p0m/2024-11-27-11-27-31/
     RDKit          3D

 17 18  0  0  0  0  0  0  0  0999 V2000
  -28.0162   -0.8135   28.8779 C   0  0  0  0  0  0  0  0  0  0  0  0
  -28.4690   -0.7850   29.8287 C   0  0  0  0  0  0  0  0  0  0  0  0
  -27.0871    0.2903   28.6377 C   0  0  0  0  0  0  0  0  0  0  0  0
  -26.8317    1.2487   29.5869 C   0  0  0  0  0  0  0  0  0  0  0  0
  -28.3914    0.0801   31.0065 C   0  0  0  0  0  0  0  0  0  0  0  0
  -27.4940    1.1521   30.7841 C   0  0  0  0  0  0  0  0  0  0  0  0
  -26.3109    0.3918   27.3640 C   0  0  0  0  0  0  0  0  0  0  0  0
  -24.9686    0.2477   27.4806 C   0  0  0  0  0  0  0  0  0  0  0  0
  -24.2490   -0.0471   28.6523 C   0  0  0  0  0  0  0  0  0  0  0  0
  -22.8336    0.1271   28.6599 C   0  0  0  0  0  0  0  0  0  0  0  0
  -22.2218    1.0291   27.7524 C   0  0  0  0  0  0  0  0  0  0  0  0
  -22.9750    1.5276   26.6701 C   0  0  0  0  0  0  0  0  0  0  0  0
  -22.4936    2.4613   25.7939 C   0  0  0  0  0  0  0  0  0  0  0  0
  -24.2990    1.2070   26.5843 C   0  0  0  0  0  0  0  0  0  0  0  0
  -26.9831    0.3360   26.1616 C   0  0  0  0  0  0  0  0  0  0  0  0
  -26.6949   -0.1145   25.1247 C   0  0  0  0  0  0  0  0  0  0  0  0
  -27.4679   -0.1516   23.9107 C   0  0  0  0  0  0  0  0  0  0  0  0
  3  7  1  0
 12 13  1  0
  7 15  1  0
 15 16  2  3
 16 17  1  0
  7  8  1  0
  1  2  2  0
  2  5  1  0
  5  6  2  0
  6  4  1  0
  4  3  2  0
  3  1  1  0
  8  9  2  0
  9 10  1  0
 10 11  2  0
 11 12  1  0
 12 14  2  0
 14  8  1  0
M  END

$$$$
