No_2960-gen_results/8p0m/2024-11-27-11-27-31/
     RDKit          3D

 35 37  0  0  0  0  0  0  0  0999 V2000
  -28.0162   -0.8135   28.8779 C   0  0  0  0  0  0  0  0  0  0  0  0
  -27.0636   -0.1189   28.6079 C   0  0  0  0  0  0  0  0  0  0  0  0
  -25.7923   -0.4302   29.0761 C   0  0  0  0  0  0  0  0  0  0  0  0
  -24.5456    0.3494   28.8225 C   0  0  0  0  0  0  0  0  0  0  0  0
  -24.6586    1.4196   27.8878 C   0  0  0  0  0  0  0  0  0  0  0  0
  -25.9471    1.6811   27.3792 C   0  0  0  0  0  0  0  0  0  0  0  0
  -27.0439    0.9739   27.6871 C   0  0  0  0  0  0  0  0  0  0  0  0
  -28.0241   -1.6475   30.1262 C   0  0  0  0  0  0  0  0  0  0  0  0
  -26.7278   -2.0846   30.5807 C   0  0  0  0  0  0  0  0  0  0  0  0
  -25.5915   -1.4064   30.1489 C   0  0  0  0  0  0  0  0  0  0  0  0
  -23.4486    2.1675   27.5241 C   0  0  0  0  0  0  0  0  0  0  0  0
  -22.4839    1.9324   27.0253 N   0  0  0  0  0  0  0  0  0  0  0  0
  -23.4554    3.4443   28.0791 O   0  0  0  0  0  0  0  0  0  0  0  0
  -29.1663   -2.4602   30.5289 C   0  0  0  0  0  0  0  0  0  0  0  0
  -29.1776   -3.6396   30.7536 O   0  0  0  0  0  0  0  0  0  0  0  0
  -30.1851   -1.6840   31.0598 N   0  0  0  0  0  0  0  0  0  0  0  0
  -31.3959   -2.3475   31.6104 C   0  0  0  0  0  0  0  0  0  0  0  0
  -28.3284    1.3576   27.0392 C   0  0  0  0  0  0  0  0  0  0  0  0
  -28.5105    1.4568   25.8948 O   0  0  0  0  0  0  0  0  0  0  0  0
  -29.3929    1.4290   27.8412 O   0  0  0  0  0  0  0  0  0  0  0  0
  -32.3245   -1.6705   31.7906 C   0  0  0  0  0  0  0  0  0  0  0  0
  -32.3636   -0.2050   31.5448 C   0  0  0  0  0  0  0  0  0  0  0  0
  -31.2101    0.3922   30.9940 C   0  0  0  0  0  0  0  0  0  0  0  0
  -30.1884   -0.3209   30.7129 C   0  0  0  0  0  0  0  0  0  0  0  0
  -33.5961   -2.1587   32.4391 C   0  0  0  0  0  0  0  0  0  0  0  0
  -33.5221   -2.7690   33.4013 O   0  0  0  0  0  0  0  0  0  0  0  0
  -34.6772   -1.6150   32.0095 O   0  0  0  0  0  0  0  0  0  0  0  0
  -23.3763    0.0590   29.2961 O   0  0  0  0  0  0  0  0  0  0  0  0
  -22.6237   -0.9758   28.7667 C   0  0  0  0  0  0  0  0  0  0  0  0
  -21.6357   -1.3558   29.9074 C   0  0  0  0  0  0  0  0  0  0  0  0
  -22.2498   -1.2017   31.0322 O   0  0  0  0  0  0  0  0  0  0  0  0
  -24.7432    3.7285   28.6909 C   0  0  0  0  0  0  0  0  0  0  0  0
  -25.5927    4.7257   28.0800 C   0  0  0  0  0  0  0  0  0  0  0  0
  -26.0088    5.5082   28.5593 C   0  0  0  0  0  0  0  0  0  0  0  0
  -26.8263    6.6133   27.8710 C   0  0  0  0  0  0  0  0  0  0  0  0
  5 11  1  0
 11 12  2  0
 11 13  1  0
  8 14  1  0
 14 15  2  0
 14 16  1  0
 16 17  1  0
  7 18  1  0
 18 19  2  0
 18 20  1  0
 21 22  1  0
 16 24  1  0
 23 24  1  0
 21 25  1  0
 25 26  1  0
 25 27  2  0
  4 28  1  0
 28 29  1  0
 29 30  1  0
 30 31  1  0
 13 32  1  0
 32 33  2  3
 33 34  1  0
 34 35  2  0
 17 21  1  0
 22 23  1  0
  3  4  1  0
  4  5  2  0
  5  6  1  0
  6  7  2  0
  7  2  1  0
  1  2  2  0
  2  3  1  0
  3 10  2  0
 10  9  1  0
  9  8  2  0
  8  1  1  0
M  END

$$$$
