No_2088-gen_results/8p0m/2024-11-27-11-27-31/
     RDKit          3D

 20 23  0  0  0  0  0  0  0  0999 V2000
  -28.0162   -0.8135   28.8779 C   0  0  0  0  0  0  0  0  0  0  0  0
  -28.4690   -0.7850   29.8287 C   0  0  0  0  0  0  0  0  0  0  0  0
  -26.5455   -0.8762   28.8500 C   0  0  0  0  0  0  0  0  0  0  0  0
  -25.8041   -1.0324   30.0571 C   0  0  0  0  0  0  0  0  0  0  0  0
  -24.3697   -1.0998   30.0718 C   0  0  0  0  0  0  0  0  0  0  0  0
  -27.9902   -1.0051   31.2092 C   0  0  0  0  0  0  0  0  0  0  0  0
  -26.5616   -1.1368   31.2600 C   0  0  0  0  0  0  0  0  0  0  0  0
  -23.6342   -0.7825   29.0667 C   0  0  0  0  0  0  0  0  0  0  0  0
  -22.1763   -0.6779   29.1657 C   0  0  0  0  0  0  0  0  0  0  0  0
  -21.4400   -0.1303   28.1207 C   0  0  0  0  0  0  0  0  0  0  0  0
  -22.1014    0.8766   27.3078 C   0  0  0  0  0  0  0  0  0  0  0  0
  -23.5471    0.9962   27.3643 C   0  0  0  0  0  0  0  0  0  0  0  0
  -24.2626    0.3021   28.2488 C   0  0  0  0  0  0  0  0  0  0  0  0
  -25.7334   -0.2934   27.8598 N   0  0  0  0  0  0  0  0  0  0  0  0
  -26.2058    0.1296   26.5958 C   0  0  0  0  0  0  0  0  0  0  0  0
  -25.8895    1.3828   26.1086 C   0  0  0  0  0  0  0  0  0  0  0  0
  -24.2138    1.7425   26.2285 C   0  0  0  0  0  0  0  0  0  0  0  0
  -30.0865   -0.7717   29.8683 C   0  0  0  0  0  0  0  0  0  0  0  0
  -30.7308   -1.5387   30.3495 O   0  0  0  0  0  0  0  0  0  0  0  0
  -30.5887    0.2089   29.1916 O   0  0  0  0  0  0  0  0  0  0  0  0
  4  5  1  0
  3 14  1  0
 13 14  1  0
 14 15  1  0
 15 16  1  0
 12 17  1  0
  2 18  1  0
 18 19  1  0
 18 20  2  0
  5  8  1  0
 17 16  1  0
  1  2  2  0
  2  6  1  0
  6  7  2  0
  7  4  1  0
  4  3  2  0
  3  1  1  0
  8  9  2  0
  9 10  1  0
 10 11  2  0
 11 12  1  0
 12 13  2  0
 13  8  1  0
M  END

$$$$
