No_2631-gen_results/8p0m/2024-11-27-11-27-31/
     RDKit          3D

 17 18  0  0  0  0  0  0  0  0999 V2000
  -28.0162   -0.8135   28.8779 C   0  0  0  0  0  0  0  0  0  0  0  0
  -27.0636   -0.1189   28.6079 C   0  0  0  0  0  0  0  0  0  0  0  0
  -25.7647   -0.3897   29.0360 C   0  0  0  0  0  0  0  0  0  0  0  0
  -25.5296   -1.5302   29.9014 C   0  0  0  0  0  0  0  0  0  0  0  0
  -26.6577   -2.2915   30.2035 C   0  0  0  0  0  0  0  0  0  0  0  0
  -27.8548   -1.9555   29.7630 C   0  0  0  0  0  0  0  0  0  0  0  0
  -24.6989    0.3589   28.7784 F   0  0  0  0  0  0  0  0  0  0  0  0
  -29.2046   -2.9455   30.2169 Cl  0  0  0  0  0  0  0  0  0  0  0  0
  -27.1716    1.0309   27.8210 O   0  0  0  0  0  0  0  0  0  0  0  0
  -27.2640    2.1352   28.0920 C   0  0  0  0  0  0  0  0  0  0  0  0
  -26.9663    3.0785   27.2495 C   0  0  0  0  0  0  0  0  0  0  0  0
  -25.9943    3.5680   27.1267 C   0  0  0  0  0  0  0  0  0  0  0  0
  -24.8238    3.3144   27.9447 C   0  0  0  0  0  0  0  0  0  0  0  0
  -23.4831    3.6927   27.6265 C   0  0  0  0  0  0  0  0  0  0  0  0
  -23.4096    3.8983   26.1864 C   0  0  0  0  0  0  0  0  0  0  0  0
  -24.8777    3.8735   25.8969 C   0  0  0  0  0  0  0  0  0  0  0  0
  -27.8926    4.3679   27.4165 C   0  0  0  0  0  0  0  0  0  0  0  0
  3  7  1  0
  6  8  1  0
  2  9  1  0
  9 10  1  0
 10 11  2  3
 11 12  1  0
 12 13  2  0
 13 14  1  0
 14 15  2  0
 12 16  1  0
 15 16  1  0
 11 17  1  0
  1  2  2  0
  2  3  1  0
  3  4  2  0
  4  5  1  0
  5  6  2  0
  6  1  1  0
M  END

$$$$
