No_234-gen_results/8p0m/2024-11-27-11-27-31/
     RDKit          3D

 12 12  0  0  0  0  0  0  0  0999 V2000
  -28.0162   -0.8135   28.8779 C   0  0  0  0  0  0  0  0  0  0  0  0
  -27.0636   -0.1189   28.6079 C   0  0  0  0  0  0  0  0  0  0  0  0
  -25.7647   -0.3897   29.0360 C   0  0  0  0  0  0  0  0  0  0  0  0
  -25.5296   -1.5302   29.9014 C   0  0  0  0  0  0  0  0  0  0  0  0
  -26.6577   -2.2915   30.2035 C   0  0  0  0  0  0  0  0  0  0  0  0
  -27.8548   -1.9555   29.7630 C   0  0  0  0  0  0  0  0  0  0  0  0
  -24.5441    0.4126   28.7379 C   0  0  0  0  0  0  0  0  0  0  0  0
  -24.0952    1.3785   29.5751 C   0  0  0  0  0  0  0  0  0  0  0  0
  -24.7317    1.7785   30.5589 F   0  0  0  0  0  0  0  0  0  0  0  0
  -23.0651    2.0289   29.3108 F   0  0  0  0  0  0  0  0  0  0  0  0
  -23.4002    0.5224   30.4403 F   0  0  0  0  0  0  0  0  0  0  0  0
  -24.1653    0.4682   27.4131 O   0  0  0  0  0  0  0  0  0  0  0  0
  3  7  1  0
  7  8  1  0
  8  9  1  0
  8 10  1  0
  8 11  1  0
  7 12  2  0
  1  2  2  0
  2  3  1  0
  3  4  2  0
  4  5  1  0
  5  6  2  0
  6  1  1  0
M  END

$$$$
