No_231-gen_results/8p0m/2024-11-27-11-27-31/
     RDKit          3D

 35 37  0  0  0  0  0  0  0  0999 V2000
  -28.0162   -0.8135   28.8779 C   0  0  0  0  0  0  0  0  0  0  0  0
  -28.4690   -0.7850   29.8287 C   0  0  0  0  0  0  0  0  0  0  0  0
  -27.1356    0.2359   28.5352 C   0  0  0  0  0  0  0  0  0  0  0  0
  -26.8745    1.2825   29.3982 C   0  0  0  0  0  0  0  0  0  0  0  0
  -28.3613    0.1987   30.9244 C   0  0  0  0  0  0  0  0  0  0  0  0
  -27.5277    1.2234   30.6356 C   0  0  0  0  0  0  0  0  0  0  0  0
  -26.3879    0.2914   27.2334 C   0  0  0  0  0  0  0  0  0  0  0  0
  -25.7787   -0.5228   27.0340 F   0  0  0  0  0  0  0  0  0  0  0  0
  -25.6034    1.4597   27.1041 F   0  0  0  0  0  0  0  0  0  0  0  0
  -27.3759    0.5234   26.2013 F   0  0  0  0  0  0  0  0  0  0  0  0
  -29.3958   -2.0216   30.3203 C   0  0  0  0  0  0  0  0  0  0  0  0
  -28.9734   -3.0971   30.3865 O   0  0  0  0  0  0  0  0  0  0  0  0
  -30.3710   -1.7392   31.0453 O   0  0  0  0  0  0  0  0  0  0  0  0
  -27.2856    2.3398   31.6050 C   0  0  0  0  0  0  0  0  0  0  0  0
  -27.6091    2.4528   32.6503 O   0  0  0  0  0  0  0  0  0  0  0  0
  -26.2303    3.1034   31.1493 O   0  0  0  0  0  0  0  0  0  0  0  0
  -25.7762    4.0391   31.9989 C   0  0  0  0  0  0  0  0  0  0  0  0
  -25.8214    5.4448   31.5940 C   0  0  0  0  0  0  0  0  0  0  0  0
  -26.9468    5.9548   31.8475 C   0  0  0  0  0  0  0  0  0  0  0  0
  -27.7136    5.6202   32.5485 O   0  0  0  0  0  0  0  0  0  0  0  0
  -27.0491    7.3072   31.3033 N   0  0  0  0  0  0  0  0  0  0  0  0
  -28.2951    8.0957   31.4138 C   0  0  0  0  0  0  0  0  0  0  0  0
  -24.8208    5.7894   30.8521 O   0  0  0  0  0  0  0  0  0  0  0  0
  -29.0230    8.0679   32.1340 C   0  0  0  0  0  0  0  0  0  0  0  0
  -30.2495    8.8260   32.1963 C   0  0  0  0  0  0  0  0  0  0  0  0
  -28.2951    9.0429   30.3139 C   0  0  0  0  0  0  0  0  0  0  0  0
  -27.2801    9.1676   29.2623 C   0  0  0  0  0  0  0  0  0  0  0  0
  -30.2978    9.7883   31.1809 C   0  0  0  0  0  0  0  0  0  0  0  0
  -29.3515    9.9241   30.2619 C   0  0  0  0  0  0  0  0  0  0  0  0
  -26.0996    9.6521   29.6463 C   0  0  0  0  0  0  0  0  0  0  0  0
  -24.9440    9.5623   28.7482 C   0  0  0  0  0  0  0  0  0  0  0  0
  -25.0877    8.7413   27.5911 C   0  0  0  0  0  0  0  0  0  0  0  0
  -26.2661    8.1042   27.3315 C   0  0  0  0  0  0  0  0  0  0  0  0
  -27.3749    8.3018   28.1634 C   0  0  0  0  0  0  0  0  0  0  0  0
  -28.6004    7.5843   27.8654 C   0  0  0  0  0  0  0  0  0  0  0  0
  3  7  1  0
  7  8  1  0
  7  9  1  0
  7 10  1  0
  2 11  1  0
 11 12  2  0
 11 13  1  0
  6 14  1  0
 14 15  2  0
 14 16  1  0
 16 17  1  0
 17 18  1  0
 18 19  1  0
 19 20  2  0
 19 21  1  0
 21 22  1  0
 18 23  2  0
 26 27  1  0
 34 35  1  0
 22 24  2  0
 24 25  1  0
 25 28  2  0
 28 29  1  0
 29 26  2  0
 26 22  1  0
 27 30  2  0
 30 31  1  0
 31 32  2  0
 32 33  1  0
 33 34  2  0
 34 27  1  0
  1  2  2  0
  2  5  1  0
  5  6  2  0
  6  4  1  0
  4  3  2  0
  3  1  1  0
M  END

$$$$
