No_2876-gen_results/8p0m/2024-11-27-11-27-31/
     RDKit          3D

 35 38  0  0  0  0  0  0  0  0999 V2000
  -28.0162   -0.8135   28.8779 C   0  0  0  0  0  0  0  0  0  0  0  0
  -27.0636   -0.1189   28.6079 C   0  0  0  0  0  0  0  0  0  0  0  0
  -25.7923   -0.4302   29.0761 C   0  0  0  0  0  0  0  0  0  0  0  0
  -24.5456    0.3494   28.8225 C   0  0  0  0  0  0  0  0  0  0  0  0
  -24.6586    1.4196   27.8878 C   0  0  0  0  0  0  0  0  0  0  0  0
  -25.9471    1.6811   27.3792 C   0  0  0  0  0  0  0  0  0  0  0  0
  -27.0439    0.9739   27.6871 C   0  0  0  0  0  0  0  0  0  0  0  0
  -29.2364   -0.0611   29.2668 C   0  0  0  0  0  0  0  0  0  0  0  0
  -29.4997    0.9915   28.3427 C   0  0  0  0  0  0  0  0  0  0  0  0
  -28.3797    1.6784   27.7428 C   0  0  0  0  0  0  0  0  0  0  0  0
  -23.4262    2.0917   27.5017 C   0  0  0  0  0  0  0  0  0  0  0  0
  -23.4990    3.0622   26.6535 N   0  0  0  0  0  0  0  0  0  0  0  0
  -22.2844    1.8385   27.9893 O   0  0  0  0  0  0  0  0  0  0  0  0
  -30.7040    1.4438   27.9313 C   0  0  0  0  0  0  0  0  0  0  0  0
  -31.0625    2.2457   27.3169 O   0  0  0  0  0  0  0  0  0  0  0  0
  -31.6966    0.8668   28.7543 O   0  0  0  0  0  0  0  0  0  0  0  0
  -25.4459   -1.6360   29.9033 C   0  0  0  0  0  0  0  0  0  0  0  0
  -25.6841   -1.4870   31.0752 F   0  0  0  0  0  0  0  0  0  0  0  0
  -26.3603   -2.5995   29.4045 F   0  0  0  0  0  0  0  0  0  0  0  0
  -24.2577   -2.1212   29.7316 F   0  0  0  0  0  0  0  0  0  0  0  0
  -32.9975    0.6602   28.2614 C   0  0  0  0  0  0  0  0  0  0  0  0
  -33.7325    1.3414   27.8216 C   0  0  0  0  0  0  0  0  0  0  0  0
  -33.4823    2.7427   28.0089 C   0  0  0  0  0  0  0  0  0  0  0  0
  -33.0022    3.3294   28.6614 C   0  0  0  0  0  0  0  0  0  0  0  0
  -32.8423    4.8500   28.6919 C   0  0  0  0  0  0  0  0  0  0  0  0
  -33.4076    5.5081   27.5959 C   0  0  0  0  0  0  0  0  0  0  0  0
  -34.0611    4.7746   26.6072 C   0  0  0  0  0  0  0  0  0  0  0  0
  -34.1465    3.4777   26.7052 C   0  0  0  0  0  0  0  0  0  0  0  0
  -33.2785   -0.8726   28.5138 C   0  0  0  0  0  0  0  0  0  0  0  0
  -34.0082   -1.4395   27.8964 N   0  0  0  0  0  0  0  0  0  0  0  0
  -34.2739   -2.6840   27.8958 C   0  0  0  0  0  0  0  0  0  0  0  0
  -33.4427   -3.5572   27.8908 C   0  0  0  0  0  0  0  0  0  0  0  0
  -32.1586   -3.1340   28.6641 C   0  0  0  0  0  0  0  0  0  0  0  0
  -32.0446   -1.7637   28.9017 C   0  0  0  0  0  0  0  0  0  0  0  0
  -31.2222   -4.0103   28.9575 O   0  0  0  0  0  0  0  0  0  0  0  0
  5 11  1  0
 11 12  2  0
 11 13  1  0
  9 14  1  0
 14 15  2  0
 14 16  1  0
  3 17  1  0
 17 18  1  0
 17 19  1  0
 17 20  1  0
 16 21  1  0
 21 22  2  3
 22 23  1  0
 21 29  1  0
 33 35  1  0
 29 30  2  0
 30 31  1  0
 31 32  2  0
 32 33  1  0
 33 34  2  0
 34 29  1  0
  2  3  1  0
  3  4  2  0
  4  5  1  0
  5  6  2  0
  6  7  1  0
 23 24  2  0
 24 25  1  0
 25 26  2  0
 26 27  1  0
 27 28  2  0
 28 23  1  0
  1  2  2  0
  2  7  1  0
  7 10  2  0
 10  9  1  0
  9  8  2  0
  8  1  1  0
M  END

$$$$
