No_274-gen_results/8p0m/2024-11-27-11-27-31/
     RDKit          3D

 18 20  0  0  0  0  0  0  0  0999 V2000
  -28.0162   -0.8135   28.8779 C   0  0  0  0  0  0  0  0  0  0  0  0
  -27.0636   -0.1190   28.6079 C   0  0  0  0  0  0  0  0  0  0  0  0
  -25.7923   -0.4302   29.0761 C   0  0  0  0  0  0  0  0  0  0  0  0
  -25.2700   -0.0487   30.0123 C   0  0  0  0  0  0  0  0  0  0  0  0
  -28.5191   -0.6302   30.0918 C   0  0  0  0  0  0  0  0  0  0  0  0
  -27.6457   -0.5646   31.3559 C   0  0  0  0  0  0  0  0  0  0  0  0
  -26.2550   -0.2092   31.4004 C   0  0  0  0  0  0  0  0  0  0  0  0
  -29.8542   -1.0864   30.5161 C   0  0  0  0  0  0  0  0  0  0  0  0
  -30.1493   -2.2812   30.7905 C   0  0  0  0  0  0  0  0  0  0  0  0
  -31.4499   -2.7924   30.8660 C   0  0  0  0  0  0  0  0  0  0  0  0
  -30.8139   -0.0640   30.4172 C   0  0  0  0  0  0  0  0  0  0  0  0
  -32.1773   -0.4746   30.5667 C   0  0  0  0  0  0  0  0  0  0  0  0
  -32.4654   -1.8106   30.8247 C   0  0  0  0  0  0  0  0  0  0  0  0
  -33.7394   -2.2230   30.9889 O   0  0  0  0  0  0  0  0  0  0  0  0
  -27.0379    0.7988   27.4114 C   0  0  0  0  0  0  0  0  0  0  0  0
  -26.2142    0.5676   26.3589 C   0  0  0  0  0  0  0  0  0  0  0  0
  -24.8453   -0.0218   26.7459 C   0  0  0  0  0  0  0  0  0  0  0  0
  -24.8350   -0.5000   27.8960 C   0  0  0  0  0  0  0  0  0  0  0  0
  1  2  1  0
  1  5  1  0
  5  6  1  0
  4  7  1  0
  6  7  2  0
  5  8  1  0
 13 14  1  0
  4  3  1  0
  8  9  2  0
  9 10  1  0
 10 13  2  0
 13 12  1  0
 12 11  2  0
 11  8  1  0
  2  3  2  0
  3 18  1  0
 18 17  2  0
 17 16  1  0
 16 15  2  0
 15  2  1  0
M  END

$$$$
