No_2899-gen_results/8p0m/2024-11-27-11-27-31/
     RDKit          3D

 14 15  0  0  0  0  0  0  0  0999 V2000
  -28.0162   -0.8135   28.8779 C   0  0  0  0  0  0  0  0  0  0  0  0
  -28.4690   -0.7850   29.8287 C   0  0  0  0  0  0  0  0  0  0  0  0
  -27.0871    0.2903   28.6377 C   0  0  0  0  0  0  0  0  0  0  0  0
  -26.9103    0.8486   27.4199 C   0  0  0  0  0  0  0  0  0  0  0  0
  -27.8863   -0.5049   31.0944 C   0  0  0  0  0  0  0  0  0  0  0  0
  -26.8583    0.4896   31.0361 C   0  0  0  0  0  0  0  0  0  0  0  0
  -26.4721    0.9027   29.7780 C   0  0  0  0  0  0  0  0  0  0  0  0
  -27.0862    0.5664   26.3256 C   0  0  0  0  0  0  0  0  0  0  0  0
  -27.8288   -0.6748   26.1083 C   0  0  0  0  0  0  0  0  0  0  0  0
  -28.8371   -0.3065   25.1610 C   0  0  0  0  0  0  0  0  0  0  0  0
  -29.9865   -1.1442   25.1030 C   0  0  0  0  0  0  0  0  0  0  0  0
  -28.3447    0.4165   23.9863 C   0  0  0  0  0  0  0  0  0  0  0  0
  -27.5070    1.5033   24.1661 C   0  0  0  0  0  0  0  0  0  0  0  0
  -26.9291    1.5773   25.3679 C   0  0  0  0  0  0  0  0  0  0  0  0
  3  4  1  0
 10 11  1  0
  4  8  1  0
  8  9  2  0
  9 10  1  0
 10 12  2  0
 12 13  1  0
 13 14  2  0
 14  8  1  0
  1  2  2  0
  2  5  1  0
  5  6  2  0
  6  7  1  0
  7  3  2  0
  3  1  1  0
M  END

$$$$
