No_2721-gen_results/8p0m/2024-11-27-11-27-31/
     RDKit          3D

 19 21  0  0  0  0  0  0  0  0999 V2000
  -28.0162   -0.8135   28.8779 C   0  0  0  0  0  0  0  0  0  0  0  0
  -27.0636   -0.1189   28.6079 C   0  0  0  0  0  0  0  0  0  0  0  0
  -25.7923   -0.4302   29.0761 C   0  0  0  0  0  0  0  0  0  0  0  0
  -25.5756   -1.5654   29.9363 C   0  0  0  0  0  0  0  0  0  0  0  0
  -26.7354   -2.3004   30.2173 C   0  0  0  0  0  0  0  0  0  0  0  0
  -27.9184   -1.9537   29.7629 C   0  0  0  0  0  0  0  0  0  0  0  0
  -27.1057    1.1023   27.7593 C   0  0  0  0  0  0  0  0  0  0  0  0
  -26.7157    2.2350   27.9945 C   0  0  0  0  0  0  0  0  0  0  0  0
  -26.6929    3.3459   27.0337 C   0  0  0  0  0  0  0  0  0  0  0  0
  -26.1137    4.6521   27.2832 C   0  0  0  0  0  0  0  0  0  0  0  0
  -25.5470    4.8355   28.5363 C   0  0  0  0  0  0  0  0  0  0  0  0
  -25.4931    3.8265   29.4633 C   0  0  0  0  0  0  0  0  0  0  0  0
  -26.0070    2.5721   29.2356 C   0  0  0  0  0  0  0  0  0  0  0  0
  -27.8082    0.8213   26.4618 C   0  0  0  0  0  0  0  0  0  0  0  0
  -27.2306    0.5961   25.4275 N   0  0  0  0  0  0  0  0  0  0  0  0
  -29.1498    1.2884   26.3632 C   0  0  0  0  0  0  0  0  0  0  0  0
  -29.8305    0.8863   25.3015 C   0  0  0  0  0  0  0  0  0  0  0  0
  -27.8051    0.1972   24.2902 C   0  0  0  0  0  0  0  0  0  0  0  0
  -29.1464    0.4459   24.1568 C   0  0  0  0  0  0  0  0  0  0  0  0
  2  7  1  0
  7 14  1  0
  7  8  1  0
  1  2  2  0
  2  3  1  0
  3  4  2  0
  4  5  1  0
  5  6  2  0
  6  1  1  0
 14 15  2  0
 15 18  1  0
 18 19  2  0
 19 17  1  0
 17 16  2  0
 16 14  1  0
  8  9  2  0
  9 10  1  0
 10 11  2  0
 11 12  1  0
 12 13  2  0
 13  8  1  0
M  END

$$$$
