No_2741-gen_results/8p0m/2024-11-27-11-27-31/
     RDKit          3D

 21 22  0  0  0  0  0  0  0  0999 V2000
  -28.0162   -0.8135   28.8779 C   0  0  0  0  0  0  0  0  0  0  0  0
  -28.4690   -0.7850   29.8287 C   0  0  0  0  0  0  0  0  0  0  0  0
  -27.1356    0.2359   28.5352 C   0  0  0  0  0  0  0  0  0  0  0  0
  -26.8745    1.2825   29.3982 C   0  0  0  0  0  0  0  0  0  0  0  0
  -28.3613    0.1987   30.9244 C   0  0  0  0  0  0  0  0  0  0  0  0
  -27.5277    1.2234   30.6356 C   0  0  0  0  0  0  0  0  0  0  0  0
  -26.4584    0.2645   27.3231 O   0  0  0  0  0  0  0  0  0  0  0  0
  -25.1154    0.2774   27.3761 C   0  0  0  0  0  0  0  0  0  0  0  0
  -24.4761    1.3616   26.6251 C   0  0  0  0  0  0  0  0  0  0  0  0
  -23.0769    1.5346   26.8394 C   0  0  0  0  0  0  0  0  0  0  0  0
  -22.3740    0.8389   27.8208 C   0  0  0  0  0  0  0  0  0  0  0  0
  -23.0813   -0.1292   28.5497 C   0  0  0  0  0  0  0  0  0  0  0  0
  -24.4304   -0.3600   28.3847 C   0  0  0  0  0  0  0  0  0  0  0  0
  -20.7483    1.1557   28.0958 Cl  0  0  0  0  0  0  0  0  0  0  0  0
  -29.4411   -1.9657   30.3221 C   0  0  0  0  0  0  0  0  0  0  0  0
  -30.4797   -2.0399   29.9222 O   0  0  0  0  0  0  0  0  0  0  0  0
  -29.0601   -2.6168   31.4345 O   0  0  0  0  0  0  0  0  0  0  0  0
  -27.3039    2.3543   31.5859 C   0  0  0  0  0  0  0  0  0  0  0  0
  -27.6380    2.2636   32.7307 F   0  0  0  0  0  0  0  0  0  0  0  0
  -27.8995    3.4993   31.0508 F   0  0  0  0  0  0  0  0  0  0  0  0
  -25.9581    2.6520   31.5912 F   0  0  0  0  0  0  0  0  0  0  0  0
  3  7  1  0
  7  8  1  0
 11 14  1  0
  2 15  1  0
 15 16  1  0
 15 17  2  0
  6 18  1  0
 18 19  1  0
 18 20  1  0
 18 21  1  0
  8  9  2  0
  9 10  1  0
 10 11  2  0
 11 12  1  0
 12 13  2  0
 13  8  1  0
  1  2  2  0
  2  5  1  0
  5  6  2  0
  6  4  1  0
  4  3  2  0
  3  1  1  0
M  END

$$$$
