No_2526-gen_results/8p0m/2024-11-27-11-27-31/
     RDKit          3D

 21 24  0  0  0  0  0  0  0  0999 V2000
  -28.0162   -0.8135   28.8779 C   0  0  0  0  0  0  0  0  0  0  0  0
  -27.0636   -0.1190   28.6079 C   0  0  0  0  0  0  0  0  0  0  0  0
  -26.9716    0.7139   27.5060 C   0  0  0  0  0  0  0  0  0  0  0  0
  -28.1053    0.7744   26.6421 C   0  0  0  0  0  0  0  0  0  0  0  0
  -29.2041    0.1179   27.0477 C   0  0  0  0  0  0  0  0  0  0  0  0
  -29.2127   -0.6088   28.1281 C   0  0  0  0  0  0  0  0  0  0  0  0
  -25.7106    1.4518   27.1380 C   0  0  0  0  0  0  0  0  0  0  0  0
  -24.6052    0.9253   27.6902 C   0  0  0  0  0  0  0  0  0  0  0  0
  -24.6227    0.0600   28.8225 C   0  0  0  0  0  0  0  0  0  0  0  0
  -25.7269   -0.4734   29.2409 C   0  0  0  0  0  0  0  0  0  0  0  0
  -23.2725    1.6786   27.4284 C   0  0  0  0  0  0  0  0  0  0  0  0
  -22.0554    1.1653   27.9174 C   0  0  0  0  0  0  0  0  0  0  0  0
  -22.1092    0.1308   28.9148 C   0  0  0  0  0  0  0  0  0  0  0  0
  -23.3673   -0.4057   29.3612 C   0  0  0  0  0  0  0  0  0  0  0  0
  -25.6874   -1.6058   29.8563 O   0  0  0  0  0  0  0  0  0  0  0  0
  -30.4407    0.3258   26.2439 C   0  0  0  0  0  0  0  0  0  0  0  0
  -31.4407    0.0170   26.5069 O   0  0  0  0  0  0  0  0  0  0  0  0
  -30.2894    1.2438   25.2159 N   0  0  0  0  0  0  0  0  0  0  0  0
  -25.7968    2.4845   26.1463 C   0  0  0  0  0  0  0  0  0  0  0  0
  -29.2717    2.0085   24.7901 C   0  0  0  0  0  0  0  0  0  0  0  0
  -27.9713    1.6352   25.4452 C   0  0  0  0  0  0  0  0  0  0  0  0
  3  7  1  0
  2 10  1  0
  9 10  1  0
 10 15  2  0
  5 16  1  0
 16 17  2  0
 16 18  1  0
  7 19  1  0
 18 20  1  0
  4 21  1  0
 21 20  1  0
  7  8  1  0
  1  2  2  0
  2  3  1  0
  3  4  2  0
  4  5  1  0
  5  6  2  0
  6  1  1  0
  8  9  2  0
  9 14  1  0
 14 13  2  0
 13 12  1  0
 12 11  2  0
 11  8  1  0
M  END

$$$$
