No_285-gen_results/8p0m/2024-11-27-11-27-31/
     RDKit          3D

 14 14  0  0  0  0  0  0  0  0999 V2000
  -28.0162   -0.8135   28.8779 C   0  0  0  0  0  0  0  0  0  0  0  0
  -28.4690   -0.7850   29.8287 C   0  0  0  0  0  0  0  0  0  0  0  0
  -26.5455   -0.8762   28.8500 C   0  0  0  0  0  0  0  0  0  0  0  0
  -25.8041   -1.0324   30.0571 C   0  0  0  0  0  0  0  0  0  0  0  0
  -27.9437   -0.9869   31.2075 C   0  0  0  0  0  0  0  0  0  0  0  0
  -26.5825   -1.0386   31.2231 C   0  0  0  0  0  0  0  0  0  0  0  0
  -29.9086   -0.7397   29.8642 F   0  0  0  0  0  0  0  0  0  0  0  0
  -24.3893   -0.9826   29.8745 C   0  0  0  0  0  0  0  0  0  0  0  0
  -23.5505   -2.1365   30.4348 Cl  0  0  0  0  0  0  0  0  0  0  0  0
  -23.7159    0.1552   29.3331 C   0  0  0  0  0  0  0  0  0  0  0  0
  -22.5043    0.0299   28.7404 C   0  0  0  0  0  0  0  0  0  0  0  0
  -21.9090    1.1677   28.0765 C   0  0  0  0  0  0  0  0  0  0  0  0
  -22.7652    2.2487   27.7222 C   0  0  0  0  0  0  0  0  0  0  0  0
  -24.0358    2.2887   28.2798 C   0  0  0  0  0  0  0  0  0  0  0  0
  2  7  1  0
  4  8  1  0
  8  9  1  0
  8 10  1  0
 10 11  2  3
 11 12  1  0
 12 13  2  3
 13 14  1  0
  1  2  2  0
  2  5  1  0
  5  6  2  0
  6  4  1  0
  4  3  2  0
  3  1  1  0
M  END

$$$$
