No_2276-gen_results/8p0m/2024-11-27-11-27-31/
     RDKit          3D

 11 11  0  0  0  0  0  0  0  0999 V2000
  -28.1229   -1.3353   28.4874 O   0  0  0  0  0  0  0  0  0  0  0  0
  -27.0637   -0.8242   28.8687 C   0  0  0  0  0  0  0  0  0  0  0  0
  -26.9592    0.0926   29.7582 C   0  0  0  0  0  0  0  0  0  0  0  0
  -25.8012   -1.3565   28.3971 N   0  0  0  0  0  0  0  0  0  0  0  0
  -27.8641    0.8180   30.2806 C   0  0  0  0  0  0  0  0  0  0  0  0
  -24.5359   -0.9360   28.7790 C   0  0  0  0  0  0  0  0  0  0  0  0
  -24.4421    0.1083   29.6161 C   0  0  0  0  0  0  0  0  0  0  0  0
  -25.5448    0.6675   30.1415 C   0  0  0  0  0  0  0  0  0  0  0  0
  -28.3224    0.6616   31.3660 N   0  0  0  0  0  0  0  0  0  0  0  0
  -29.3244    1.3231   31.9953 C   0  0  0  0  0  0  0  0  0  0  0  0
  -29.6779    1.1192   33.3886 C   0  0  0  0  0  0  0  0  0  0  0  0
  1  2  2  0
  2  3  1  0
  2  4  1  0
  3  5  1  0
  4  6  1  0
  3  8  1  0
  7  8  1  0
  5  9  1  0
  9 10  2  3
 10 11  1  0
  7  6  1  0
M  END

$$$$
