No_2781-gen_results/8p0m/2024-11-27-11-27-31/
     RDKit          3D

 24 27  0  0  0  0  0  0  0  0999 V2000
  -28.0162   -0.8135   28.8779 C   0  0  0  0  0  0  0  0  0  0  0  0
  -28.4690   -0.7850   29.8287 C   0  0  0  0  0  0  0  0  0  0  0  0
  -28.1960    0.3478   28.0550 C   0  0  0  0  0  0  0  0  0  0  0  0
  -29.0191    1.3501   28.3782 C   0  0  0  0  0  0  0  0  0  0  0  0
  -29.4107    0.1803   30.3782 C   0  0  0  0  0  0  0  0  0  0  0  0
  -29.6059    1.2495   29.6193 C   0  0  0  0  0  0  0  0  0  0  0  0
  -27.4597    0.3802   26.7091 C   0  0  0  0  0  0  0  0  0  0  0  0
  -27.9298    0.5836   25.6804 C   0  0  0  0  0  0  0  0  0  0  0  0
  -29.3518    0.8141   25.5930 C   0  0  0  0  0  0  0  0  0  0  0  0
  -30.0874    0.3793   24.7863 C   0  0  0  0  0  0  0  0  0  0  0  0
  -31.5061    0.6291   24.6778 C   0  0  0  0  0  0  0  0  0  0  0  0
  -32.0014    1.4784   25.6478 C   0  0  0  0  0  0  0  0  0  0  0  0
  -31.2549    2.0846   26.5629 C   0  0  0  0  0  0  0  0  0  0  0  0
  -29.8572    1.8097   26.5872 C   0  0  0  0  0  0  0  0  0  0  0  0
  -28.2234    2.6333   28.3889 N   0  0  0  0  0  0  0  0  0  0  0  0
  -29.0910    3.1373   26.5148 C   0  0  0  0  0  0  0  0  0  0  0  0
  -27.5116    2.8977   29.5487 C   0  0  0  0  0  0  0  0  0  0  0  0
  -27.9339    3.5614   27.4502 C   0  0  0  0  0  0  0  0  0  0  0  0
  -26.3342    3.5957   29.4946 C   0  0  0  0  0  0  0  0  0  0  0  0
  -25.5217    3.6788   30.6203 C   0  0  0  0  0  0  0  0  0  0  0  0
  -25.9030    3.0527   31.8374 C   0  0  0  0  0  0  0  0  0  0  0  0
  -27.0622    2.3127   31.9061 C   0  0  0  0  0  0  0  0  0  0  0  0
  -27.5903    2.0325   30.6850 C   0  0  0  0  0  0  0  0  0  0  0  0
  -31.2428    1.1487   29.4748 C   0  0  0  0  0  0  0  0  0  0  0  0
  3  7  1  0
  7  8  2  3
  8  9  1  0
  4 15  1  0
 14 16  1  0
 15 17  1  0
 15 18  1  0
 16 18  1  0
  6 24  1  0
  9 10  2  0
 10 11  1  0
 11 12  2  0
 12 13  1  0
 13 14  2  0
 14  9  1  0
 17 19  2  0
 19 20  1  0
 20 21  2  0
 21 22  1  0
 22 23  2  0
 23 17  1  0
  1  2  2  0
  2  5  1  0
  5  6  2  0
  6  4  1  0
  4  3  2  0
  3  1  1  0
M  END

$$$$
