No_2846-gen_results/8p0m/2024-11-27-11-27-31/
     RDKit          3D

 26 28  0  0  0  0  0  0  0  0999 V2000
  -28.1146   -0.6256   29.0813 Br  0  0  0  0  0  0  0  0  0  0  0  0
  -26.9268    0.4545   28.6846 C   0  0  0  0  0  0  0  0  0  0  0  0
  -25.8457    0.7043   29.3312 C   0  0  0  0  0  0  0  0  0  0  0  0
  -25.5115   -0.1985   30.4878 C   0  0  0  0  0  0  0  0  0  0  0  0
  -24.3310    0.0607   31.2191 C   0  0  0  0  0  0  0  0  0  0  0  0
  -23.4517    1.0942   30.7890 C   0  0  0  0  0  0  0  0  0  0  0  0
  -23.7174    1.8848   29.6952 C   0  0  0  0  0  0  0  0  0  0  0  0
  -24.8871    1.6560   28.9886 C   0  0  0  0  0  0  0  0  0  0  0  0
  -27.0874    1.1253   27.3437 C   0  0  0  0  0  0  0  0  0  0  0  0
  -27.0546    0.5360   26.3906 C   0  0  0  0  0  0  0  0  0  0  0  0
  -26.8782   -0.8948   26.2607 C   0  0  0  0  0  0  0  0  0  0  0  0
  -26.5614   -1.3704   24.8947 C   0  0  0  0  0  0  0  0  0  0  0  0
  -27.0194   -0.5066   23.9045 C   0  0  0  0  0  0  0  0  0  0  0  0
  -27.1439    0.8400   24.8925 C   0  0  0  0  0  0  0  0  0  0  0  0
  -27.4198    2.5690   27.4031 C   0  0  0  0  0  0  0  0  0  0  0  0
  -28.0300    3.1997   28.5058 C   0  0  0  0  0  0  0  0  0  0  0  0
  -28.9247    2.8163   29.1758 C   0  0  0  0  0  0  0  0  0  0  0  0
  -29.4212    3.5210   30.3230 C   0  0  0  0  0  0  0  0  0  0  0  0
  -28.8663    4.7811   30.5800 C   0  0  0  0  0  0  0  0  0  0  0  0
  -27.8413    5.2980   29.8149 C   0  0  0  0  0  0  0  0  0  0  0  0
  -27.3535    4.5668   28.7613 C   0  0  0  0  0  0  0  0  0  0  0  0
  -27.4227    3.2108   26.2667 O   0  0  0  0  0  0  0  0  0  0  0  0
  -26.2757    5.1416   27.9910 C   0  0  0  0  0  0  0  0  0  0  0  0
  -25.3992    4.3448   27.7069 F   0  0  0  0  0  0  0  0  0  0  0  0
  -25.7150    6.1763   28.6565 F   0  0  0  0  0  0  0  0  0  0  0  0
  -26.8397    5.7140   26.8782 F   0  0  0  0  0  0  0  0  0  0  0  0
  1  2  1  0
  2  9  1  0
  9 10  2  3
 10 11  1  0
 11 12  2  0
 12 13  1  0
 10 14  1  0
 13 14  2  0
  9 15  1  0
 15 16  1  0
 15 22  2  0
 21 23  1  0
 23 24  1  0
 23 25  1  0
 23 26  1  0
  2  3  1  0
  3  4  2  0
  4  5  1  0
  5  6  2  0
  6  7  1  0
  7  8  2  0
  8  3  1  0
 16 17  2  0
 17 18  1  0
 18 19  2  0
 19 20  1  0
 20 21  2  0
 21 16  1  0
M  END

$$$$
