No_2463-gen_results/8p0m/2024-11-27-11-27-31/
     RDKit          3D

 34 38  0  0  0  0  0  0  0  0999 V2000
  -28.0162   -0.8135   28.8779 C   0  0  0  0  0  0  0  0  0  0  0  0
  -28.4690   -0.7850   29.8287 C   0  0  0  0  0  0  0  0  0  0  0  0
  -26.5042   -0.7777   28.8766 C   0  0  0  0  0  0  0  0  0  0  0  0
  -25.6540   -0.6597   27.7191 C   0  0  0  0  0  0  0  0  0  0  0  0
  -27.9180   -0.9374   31.1824 C   0  0  0  0  0  0  0  0  0  0  0  0
  -26.5424   -0.9399   31.2606 C   0  0  0  0  0  0  0  0  0  0  0  0
  -25.7832   -0.8935   30.1201 C   0  0  0  0  0  0  0  0  0  0  0  0
  -24.3096   -0.3015   27.8531 C   0  0  0  0  0  0  0  0  0  0  0  0
  -23.6669   -0.4595   29.0986 C   0  0  0  0  0  0  0  0  0  0  0  0
  -24.3700   -0.6645   30.2027 C   0  0  0  0  0  0  0  0  0  0  0  0
  -22.3162   -0.2463   29.1235 O   0  0  0  0  0  0  0  0  0  0  0  0
  -21.7195    0.8550   28.5526 C   0  0  0  0  0  0  0  0  0  0  0  0
  -29.9095   -0.8706   29.8629 F   0  0  0  0  0  0  0  0  0  0  0  0
  -22.5581    2.0152   28.3283 C   0  0  0  0  0  0  0  0  0  0  0  0
  -22.8117    2.3083   27.0763 O   0  0  0  0  0  0  0  0  0  0  0  0
  -23.9378    2.9436   26.6535 C   0  0  0  0  0  0  0  0  0  0  0  0
  -25.0948    2.4470   27.0574 C   0  0  0  0  0  0  0  0  0  0  0  0
  -26.3348    3.0995   26.4433 C   0  0  0  0  0  0  0  0  0  0  0  0
  -27.3905    3.2836   26.9734 C   0  0  0  0  0  0  0  0  0  0  0  0
  -27.5345    3.1707   28.3360 C   0  0  0  0  0  0  0  0  0  0  0  0
  -26.4462    2.5703   29.0999 C   0  0  0  0  0  0  0  0  0  0  0  0
  -25.1715    2.4913   28.5453 C   0  0  0  0  0  0  0  0  0  0  0  0
  -23.8332    1.8087   29.0334 O   0  0  0  0  0  0  0  0  0  0  0  0
  -26.5044    2.5376   30.6128 C   0  0  0  0  0  0  0  0  0  0  0  0
  -25.5663    3.1697   31.4633 C   0  0  0  0  0  0  0  0  0  0  0  0
  -25.6579    2.9619   32.8153 C   0  0  0  0  0  0  0  0  0  0  0  0
  -26.7631    2.3220   33.4206 C   0  0  0  0  0  0  0  0  0  0  0  0
  -27.7948    1.9342   32.5490 C   0  0  0  0  0  0  0  0  0  0  0  0
  -27.6771    2.0283   31.1931 C   0  0  0  0  0  0  0  0  0  0  0  0
  -28.9975    1.3272   33.2054 C   0  0  0  0  0  0  0  0  0  0  0  0
  -29.6105    2.0367   34.0606 N   0  0  0  0  0  0  0  0  0  0  0  0
  -30.6897    2.3518   34.2539 C   0  0  0  0  0  0  0  0  0  0  0  0
  -31.6770    1.8946   33.3907 C   0  0  0  0  0  0  0  0  0  0  0  0
  -32.9900    2.2314   33.3177 C   0  0  0  0  0  0  0  0  0  0  0  0
  9 11  1  0
 11 12  1  0
  2 13  1  0
 12 14  1  0
 14 15  1  0
 15 16  1  0
 16 17  1  0
 14 23  1  0
 22 23  1  0
 21 24  1  0
 28 30  1  0
 30 31  1  0
 31 32  1  0
 32 33  2  3
 33 34  1  0
 17 18  2  0
 18 19  1  0
 19 20  2  0
 20 21  1  0
 21 22  2  0
 22 17  1  0
 24 25  2  0
 25 26  1  0
 26 27  2  0
 27 28  1  0
 28 29  2  0
 29 24  1  0
  1  2  2  0
  2  5  1  0
  5  6  2  0
  6  7  1  0
  3  1  1  0
  3  4  2  0
  4  8  1  0
  8  9  2  0
  9 10  1  0
 10  7  2  0
  7  3  1  0
M  END

$$$$
