No_2086-gen_results/8p0m/2024-11-27-11-27-31/
     RDKit          3D

 11 11  0  0  0  0  0  0  0  0999 V2000
  -28.1229   -1.3353   28.4874 O   0  0  0  0  0  0  0  0  0  0  0  0
  -27.0637   -0.8242   28.8687 C   0  0  0  0  0  0  0  0  0  0  0  0
  -26.9592    0.0926   29.7582 C   0  0  0  0  0  0  0  0  0  0  0  0
  -25.8472   -1.5491   28.6589 N   0  0  0  0  0  0  0  0  0  0  0  0
  -25.7222    0.7177   30.1925 C   0  0  0  0  0  0  0  0  0  0  0  0
  -24.5648   -1.0740   29.0510 C   0  0  0  0  0  0  0  0  0  0  0  0
  -24.5288    0.0511   29.8479 C   0  0  0  0  0  0  0  0  0  0  0  0
  -28.1893    0.8778   30.1322 C   0  0  0  0  0  0  0  0  0  0  0  0
  -28.9301    0.3852   30.9635 N   0  0  0  0  0  0  0  0  0  0  0  0
  -30.1475    0.4329   31.0536 C   0  0  0  0  0  0  0  0  0  0  0  0
  -30.8778   -0.1078   31.9963 O   0  0  0  0  0  0  0  0  0  0  0  0
  1  2  2  0
  2  3  1  0
  2  4  1  0
  3  5  1  0
  5  7  1  0
  6  7  1  0
  3  8  1  0
  8  9  1  0
  9 10  2  0
 10 11  2  0
  6  4  1  0
M  END

$$$$
