No_2886-gen_results/8p0m/2024-11-27-11-27-31/
     RDKit          3D

 17 18  0  0  0  0  0  0  0  0999 V2000
  -28.0162   -0.8135   28.8779 C   0  0  0  0  0  0  0  0  0  0  0  0
  -28.4690   -0.7850   29.8287 C   0  0  0  0  0  0  0  0  0  0  0  0
  -26.5455   -0.8762   28.8500 C   0  0  0  0  0  0  0  0  0  0  0  0
  -25.6825   -0.7773   27.6829 C   0  0  0  0  0  0  0  0  0  0  0  0
  -27.9181   -1.0034   31.1877 C   0  0  0  0  0  0  0  0  0  0  0  0
  -26.5308   -1.0794   31.2463 C   0  0  0  0  0  0  0  0  0  0  0  0
  -25.7798   -1.0462   30.0905 C   0  0  0  0  0  0  0  0  0  0  0  0
  -25.2322    0.5793   27.3292 C   0  0  0  0  0  0  0  0  0  0  0  0
  -25.5211    1.0301   26.0783 C   0  0  0  0  0  0  0  0  0  0  0  0
  -26.2223    0.2618   25.1490 C   0  0  0  0  0  0  0  0  0  0  0  0
  -24.4971    1.3995   28.2584 C   0  0  0  0  0  0  0  0  0  0  0  0
  -23.7394    0.9109   29.2146 C   0  0  0  0  0  0  0  0  0  0  0  0
  -24.1696    2.6686   27.7088 C   0  0  0  0  0  0  0  0  0  0  0  0
  -24.4451    3.1896   26.5162 C   0  0  0  0  0  0  0  0  0  0  0  0
  -25.1300    2.3528   25.6688 C   0  0  0  0  0  0  0  0  0  0  0  0
  -23.8705    1.5428   30.5059 N   0  0  0  0  0  0  0  0  0  0  0  0
  -22.7843    0.1351   29.1559 O   0  0  0  0  0  0  0  0  0  0  0  0
  3  4  1  0
  4  8  1  0
  9 10  1  0
 11 12  1  0
 12 16  1  0
 12 17  2  0
  8  9  2  0
  9 15  1  0
 15 14  2  0
 14 13  1  0
 13 11  2  0
 11  8  1  0
  1  2  2  0
  2  5  1  0
  5  6  2  0
  6  7  1  0
  7  3  2  0
  3  1  1  0
M  END

$$$$
