No_235-gen_results/8p0m/2024-11-27-11-27-31/
     RDKit          3D

 25 28  0  0  0  0  0  0  0  0999 V2000
  -28.0162   -0.8135   28.8779 C   0  0  0  0  0  0  0  0  0  0  0  0
  -27.0636   -0.1189   28.6079 C   0  0  0  0  0  0  0  0  0  0  0  0
  -25.7647   -0.3897   29.0360 C   0  0  0  0  0  0  0  0  0  0  0  0
  -24.5516    0.4058   28.7646 C   0  0  0  0  0  0  0  0  0  0  0  0
  -23.2300    0.1178   29.2575 C   0  0  0  0  0  0  0  0  0  0  0  0
  -23.0942   -1.1309   29.8730 C   0  0  0  0  0  0  0  0  0  0  0  0
  -27.7980   -1.9341   29.8560 C   0  0  0  0  0  0  0  0  0  0  0  0
  -26.5420   -2.3269   30.2580 C   0  0  0  0  0  0  0  0  0  0  0  0
  -25.4514   -1.5516   29.9079 C   0  0  0  0  0  0  0  0  0  0  0  0
  -24.1562   -1.9097   30.2809 C   0  0  0  0  0  0  0  0  0  0  0  0
  -24.6450    1.6582   27.9464 C   0  0  0  0  0  0  0  0  0  0  0  0
  -24.8958    2.7559   28.5615 C   0  0  0  0  0  0  0  0  0  0  0  0
  -25.7918    3.5939   28.0297 C   0  0  0  0  0  0  0  0  0  0  0  0
  -25.9449    3.5871   26.6052 C   0  0  0  0  0  0  0  0  0  0  0  0
  -25.5176    1.5696   26.6941 C   0  0  0  0  0  0  0  0  0  0  0  0
  -25.8799    2.5370   25.9893 C   0  0  0  0  0  0  0  0  0  0  0  0
  -23.1512    1.8385   27.3112 C   0  0  0  0  0  0  0  0  0  0  0  0
  -25.5509    0.1764   26.0534 C   0  0  0  0  0  0  0  0  0  0  0  0
  -28.8133   -2.7895   30.1804 O   0  0  0  0  0  0  0  0  0  0  0  0
  -29.9644   -2.2984   30.6521 C   0  0  0  0  0  0  0  0  0  0  0  0
  -30.3921   -3.0407   31.7605 C   0  0  0  0  0  0  0  0  0  0  0  0
  -31.5448   -2.6153   32.3102 C   0  0  0  0  0  0  0  0  0  0  0  0
  -32.0470   -1.6247   31.9407 C   0  0  0  0  0  0  0  0  0  0  0  0
  -30.9891   -1.3660   30.9216 C   0  0  0  0  0  0  0  0  0  0  0  0
  -31.0178   -0.3091   30.0255 O   0  0  0  0  0  0  0  0  0  0  0  0
  4 11  1  0
 11 12  1  0
 13 14  1  0
 11 15  1  0
 14 16  1  0
 11 17  1  0
 15 18  1  0
  7 19  1  0
 19 20  1  0
 20 21  1  0
 21 22  1  0
 22 23  2  0
 20 24  1  0
 23 24  1  0
 24 25  2  0
 12 13  1  0
 16 15  1  0
  1  2  2  0
  2  3  1  0
  9  8  1  0
  8  7  2  0
  7  1  1  0
  3  4  2  0
  4  5  1  0
  5  6  2  0
  6 10  1  0
 10  9  2  0
  9  3  1  0
M  END

$$$$
