No_2749-gen_results/8p0m/2024-11-27-11-27-31/
     RDKit          3D

 20 22  0  0  0  0  0  0  0  0999 V2000
  -28.0162   -0.8135   28.8779 C   0  0  0  0  0  0  0  0  0  0  0  0
  -28.4690   -0.7850   29.8287 C   0  0  0  0  0  0  0  0  0  0  0  0
  -27.1356    0.2359   28.5352 C   0  0  0  0  0  0  0  0  0  0  0  0
  -26.8050    1.0509   29.2763 C   0  0  0  0  0  0  0  0  0  0  0  0
  -28.2372    0.1503   30.9300 C   0  0  0  0  0  0  0  0  0  0  0  0
  -27.3522    1.1239   30.6071 C   0  0  0  0  0  0  0  0  0  0  0  0
  -26.4616    0.1962   27.1371 C   0  0  0  0  0  0  0  0  0  0  0  0
  -25.0613    0.4250   27.0907 C   0  0  0  0  0  0  0  0  0  0  0  0
  -24.4924    0.9199   26.1514 C   0  0  0  0  0  0  0  0  0  0  0  0
  -23.0865    1.4027   26.2537 C   0  0  0  0  0  0  0  0  0  0  0  0
  -22.4511    1.2941   27.4843 C   0  0  0  0  0  0  0  0  0  0  0  0
  -23.1728    0.7705   28.5674 C   0  0  0  0  0  0  0  0  0  0  0  0
  -24.5085    0.3518   28.4422 C   0  0  0  0  0  0  0  0  0  0  0  0
  -27.2147    0.1440   25.9788 C   0  0  0  0  0  0  0  0  0  0  0  0
  -27.9925    1.1811   25.6074 N   0  0  0  0  0  0  0  0  0  0  0  0
  -28.0059    2.2746   26.1594 C   0  0  0  0  0  0  0  0  0  0  0  0
  -28.8145    0.9217   24.4403 C   0  0  0  0  0  0  0  0  0  0  0  0
  -28.8927    3.3660   25.9347 C   0  0  0  0  0  0  0  0  0  0  0  0
  -29.8297    1.8046   24.1511 C   0  0  0  0  0  0  0  0  0  0  0  0
  -29.7691    3.1603   24.7770 C   0  0  0  0  0  0  0  0  0  0  0  0
  3  7  1  0
  7  8  1  0
  7 14  1  0
 14 15  1  0
 15 16  1  0
 15 17  1  0
 18 20  1  0
 19 20  1  0
 16 18  1  0
 19 17  1  0
  8  9  2  0
  9 10  1  0
 10 11  2  0
 11 12  1  0
 12 13  2  0
 13  8  1  0
  1  2  2  0
  2  5  1  0
  5  6  2  0
  6  4  1  0
  4  3  2  0
  3  1  1  0
M  END

$$$$
