No_2237-gen_results/8p0m/2024-11-27-11-27-31/
     RDKit          3D

 24 29  0  0  0  0  0  0  0  0999 V2000
  -28.0162   -0.8135   28.8779 C   0  0  0  0  0  0  0  0  0  0  0  0
  -28.4690   -0.7850   29.8287 C   0  0  0  0  0  0  0  0  0  0  0  0
  -26.5042   -0.7777   28.8766 C   0  0  0  0  0  0  0  0  0  0  0  0
  -25.9500    0.1157   29.4052 C   0  0  0  0  0  0  0  0  0  0  0  0
  -28.1123   -0.5435   30.8623 C   0  0  0  0  0  0  0  0  0  0  0  0
  -24.4551    0.2686   29.0492 C   0  0  0  0  0  0  0  0  0  0  0  0
  -26.9772    0.1677   31.4686 C   0  0  0  0  0  0  0  0  0  0  0  0
  -25.9101    0.4971   30.8204 C   0  0  0  0  0  0  0  0  0  0  0  0
  -23.8503    0.9619   28.3039 C   0  0  0  0  0  0  0  0  0  0  0  0
  -22.4318    1.0198   28.0258 C   0  0  0  0  0  0  0  0  0  0  0  0
  -21.6118    0.1414   28.6702 C   0  0  0  0  0  0  0  0  0  0  0  0
  -23.3917   -0.7328   29.6646 C   0  0  0  0  0  0  0  0  0  0  0  0
  -22.1086   -0.7501   29.4650 C   0  0  0  0  0  0  0  0  0  0  0  0
  -24.6604    2.0140   27.5406 C   0  0  0  0  0  0  0  0  0  0  0  0
  -24.6137    2.1269   26.2309 C   0  0  0  0  0  0  0  0  0  0  0  0
  -25.5430    2.8484   28.2820 C   0  0  0  0  0  0  0  0  0  0  0  0
  -26.3134    3.8035   27.6603 C   0  0  0  0  0  0  0  0  0  0  0  0
  -27.2382    4.5369   28.4148 C   0  0  0  0  0  0  0  0  0  0  0  0
  -27.5189    4.0894   29.7360 C   0  0  0  0  0  0  0  0  0  0  0  0
  -26.6661    3.2386   30.3952 C   0  0  0  0  0  0  0  0  0  0  0  0
  -25.7272    2.5281   29.6628 C   0  0  0  0  0  0  0  0  0  0  0  0
  -25.5777    1.2665   30.3480 C   0  0  0  0  0  0  0  0  0  0  0  0
  -24.1285    1.3384   31.1117 C   0  0  0  0  0  0  0  0  0  0  0  0
  -26.7624    1.5682   30.5230 C   0  0  0  0  0  0  0  0  0  0  0  0
  1  2  1  0
  1  3  1  0
  3  4  1  0
  2  5  2  0
  4  6  1  0
  5  7  1  0
  4  8  1  0
  7  8  1  0
  9 14  1  0
 14 15  2  0
 14 16  1  0
  8 22  1  0
 21 22  1  0
 22 23  1  0
  7 24  1  0
 20 24  1  0
 22 24  1  0
  6  9  2  0
  9 10  1  0
 10 11  2  0
 11 13  1  0
 13 12  2  0
 12  6  1  0
 16 17  2  0
 17 18  1  0
 18 19  2  0
 19 20  1  0
 20 21  2  0
 21 16  1  0
M  END

$$$$
