No_2811-gen_results/8p0m/2024-11-27-11-27-31/
     RDKit          3D

 17 20  0  0  0  0  0  0  0  0999 V2000
  -28.0162   -0.8135   28.8779 C   0  0  0  0  0  0  0  0  0  0  0  0
  -28.4690   -0.7850   29.8287 C   0  0  0  0  0  0  0  0  0  0  0  0
  -28.1960    0.3478   28.0550 C   0  0  0  0  0  0  0  0  0  0  0  0
  -29.0191    1.3501   28.3782 C   0  0  0  0  0  0  0  0  0  0  0  0
  -29.1993    2.4568   27.5396 C   0  0  0  0  0  0  0  0  0  0  0  0
  -29.3831    0.1511   30.4352 C   0  0  0  0  0  0  0  0  0  0  0  0
  -29.6005    1.2796   29.6234 C   0  0  0  0  0  0  0  0  0  0  0  0
  -28.9183    3.6276   27.9282 C   0  0  0  0  0  0  0  0  0  0  0  0
  -28.3011    3.8247   29.2370 C   0  0  0  0  0  0  0  0  0  0  0  0
  -27.3261    4.4344   29.2929 C   0  0  0  0  0  0  0  0  0  0  0  0
  -26.4735    4.5818   30.5902 C   0  0  0  0  0  0  0  0  0  0  0  0
  -26.9507    3.8401   31.6739 C   0  0  0  0  0  0  0  0  0  0  0  0
  -28.0853    3.1442   31.5044 C   0  0  0  0  0  0  0  0  0  0  0  0
  -28.7194    3.0880   30.3381 C   0  0  0  0  0  0  0  0  0  0  0  0
  -29.1720    1.7783   30.1744 C   0  0  0  0  0  0  0  0  0  0  0  0
  -29.6437    1.9282   31.5641 N   0  0  0  0  0  0  0  0  0  0  0  0
  -28.7320    2.4550   32.5945 C   0  0  0  0  0  0  0  0  0  0  0  0
  4  5  1  0
  5  8  2  0
  8  9  1  0
  7 15  1  0
 14 15  1  0
 15 16  1  0
 13 17  1  0
 16 17  1  0
  1  2  2  0
  2  6  1  0
  6  7  2  0
  7  4  1  0
  4  3  2  0
  3  1  1  0
  9 10  2  0
 10 11  1  0
 11 12  2  0
 12 13  1  0
 13 14  2  0
 14  9  1  0
M  END

$$$$
