No_2263-gen_results/8p0m/2024-11-27-11-27-31/
     RDKit          3D

 35 39  0  0  0  0  0  0  0  0999 V2000
  -28.0162   -0.8135   28.8779 C   0  0  0  0  0  0  0  0  0  0  0  0
  -27.0636   -0.1189   28.6079 C   0  0  0  0  0  0  0  0  0  0  0  0
  -25.7647   -0.3897   29.0360 C   0  0  0  0  0  0  0  0  0  0  0  0
  -25.5296   -1.5302   29.9014 C   0  0  0  0  0  0  0  0  0  0  0  0
  -26.6888   -2.2893   30.1810 C   0  0  0  0  0  0  0  0  0  0  0  0
  -27.7631   -1.9625   29.7387 C   0  0  0  0  0  0  0  0  0  0  0  0
  -28.8805   -2.7547   30.1120 O   0  0  0  0  0  0  0  0  0  0  0  0
  -24.5366    0.4322   28.7398 C   0  0  0  0  0  0  0  0  0  0  0  0
  -24.4900    1.2803   27.7420 C   0  0  0  0  0  0  0  0  0  0  0  0
  -23.3009    1.9048   27.3667 C   0  0  0  0  0  0  0  0  0  0  0  0
  -22.0737    1.6304   28.0010 C   0  0  0  0  0  0  0  0  0  0  0  0
  -23.2750    0.0072   29.3237 C   0  0  0  0  0  0  0  0  0  0  0  0
  -22.0726    0.6791   28.9659 C   0  0  0  0  0  0  0  0  0  0  0  0
  -29.9936   -2.2491   30.5775 C   0  0  0  0  0  0  0  0  0  0  0  0
  -31.0386   -2.9566   30.2374 C   0  0  0  0  0  0  0  0  0  0  0  0
  -31.9064   -2.5201   29.5760 O   0  0  0  0  0  0  0  0  0  0  0  0
  -31.2040   -4.2997   30.7010 N   0  0  0  0  0  0  0  0  0  0  0  0
  -32.2153   -5.1933   30.2323 C   0  0  0  0  0  0  0  0  0  0  0  0
  -31.9577   -6.4980   30.4781 C   0  0  0  0  0  0  0  0  0  0  0  0
  -30.9060   -6.8440   31.2697 C   0  0  0  0  0  0  0  0  0  0  0  0
  -29.8712   -5.9897   31.6753 C   0  0  0  0  0  0  0  0  0  0  0  0
  -30.0308   -4.7469   31.3634 C   0  0  0  0  0  0  0  0  0  0  0  0
  -29.9218   -1.9827   32.1126 C   0  0  0  0  0  0  0  0  0  0  0  0
  -29.4165   -0.6910   32.3668 C   0  0  0  0  0  0  0  0  0  0  0  0
  -30.0005   -0.1014   33.3833 C   0  0  0  0  0  0  0  0  0  0  0  0
  -30.5792   -0.7888   34.3355 C   0  0  0  0  0  0  0  0  0  0  0  0
  -31.1813   -2.0477   34.0358 C   0  0  0  0  0  0  0  0  0  0  0  0
  -30.6536   -2.7014   32.9566 C   0  0  0  0  0  0  0  0  0  0  0  0
  -30.7378   -4.1912   32.8032 C   0  0  0  0  0  0  0  0  0  0  0  0
  -28.4797   -2.6172   32.4215 O   0  0  0  0  0  0  0  0  0  0  0  0
  -32.1009   -2.7427   34.9703 C   0  0  0  0  0  0  0  0  0  0  0  0
  -33.3568   -2.5756   34.7061 C   0  0  0  0  0  0  0  0  0  0  0  0
  -33.8558   -1.6773   33.7505 C   0  0  0  0  0  0  0  0  0  0  0  0
  -34.7234   -1.5266   33.2223 C   0  0  0  0  0  0  0  0  0  0  0  0
  -35.0691   -0.5012   32.1732 C   0  0  0  0  0  0  0  0  0  0  0  0
  6  7  1  0
  3  8  1  0
  7 14  1  0
 14 15  1  0
 15 16  2  0
 15 17  1  0
 17 18  1  0
 19 20  1  0
 17 22  1  0
 21 22  1  0
 14 23  1  0
 23 24  1  0
 24 25  1  0
 26 27  1  0
 23 28  1  0
 27 28  1  0
 22 29  1  0
 28 29  1  0
 23 30  1  0
 27 31  1  0
 31 32  2  3
 32 33  1  0
 33 34  2  3
 34 35  1  0
 18 19  1  0
 20 21  1  0
 25 26  1  0
  1  2  2  0
  2  3  1  0
  3  4  2  0
  4  5  1  0
  5  6  2  0
  6  1  1  0
  8  9  2  0
  9 10  1  0
 10 11  2  0
 11 13  1  0
 13 12  2  0
 12  8  1  0
M  END

$$$$
