No_2265-gen_results/8p0m/2024-11-27-11-27-31/
     RDKit          3D

 16 17  0  0  0  0  0  0  0  0999 V2000
  -28.0162   -0.8135   28.8779 C   0  0  0  0  0  0  0  0  0  0  0  0
  -28.4690   -0.7850   29.8287 C   0  0  0  0  0  0  0  0  0  0  0  0
  -28.1816    0.4277   28.1134 C   0  0  0  0  0  0  0  0  0  0  0  0
  -27.4498    0.6435   26.8500 C   0  0  0  0  0  0  0  0  0  0  0  0
  -27.8596    1.4573   25.9076 C   0  0  0  0  0  0  0  0  0  0  0  0
  -29.4263    0.1097   30.4178 C   0  0  0  0  0  0  0  0  0  0  0  0
  -29.6233    1.2198   29.7351 C   0  0  0  0  0  0  0  0  0  0  0  0
  -28.9609    1.4529   28.5513 C   0  0  0  0  0  0  0  0  0  0  0  0
  -28.7886    2.5164   26.2663 C   0  0  0  0  0  0  0  0  0  0  0  0
  -29.2995    2.4792   27.5997 C   0  0  0  0  0  0  0  0  0  0  0  0
  -26.4407   -0.3352   26.3468 C   0  0  0  0  0  0  0  0  0  0  0  0
  -25.7846   -0.0109   25.2072 C   0  0  0  0  0  0  0  0  0  0  0  0
  -26.1417    0.8833   24.3498 C   0  0  0  0  0  0  0  0  0  0  0  0
  -27.1506    1.7316   24.6920 C   0  0  0  0  0  0  0  0  0  0  0  0
  -27.6580    2.7632   23.8042 C   0  0  0  0  0  0  0  0  0  0  0  0
  -27.1510    2.7477   24.4174 C   0  0  0  0  0  0  0  0  0  0  0  0
  4 11  1  0
 11 12  2  3
 12 13  1  0
 13 14  2  3
 14 15  1  0
 15 16  1  0
  3  4  2  0
  4  5  1  0
  5  9  2  0
  9 10  1  0
 10  8  2  0
  1  2  2  0
  2  6  1  0
  6  7  2  0
  7  8  1  0
  8  3  1  0
  3  1  1  0
M  END

$$$$
