No_2358-gen_results/8p0m/2024-11-27-11-27-31/
     RDKit          3D

 14 15  0  0  0  0  0  0  0  0999 V2000
  -28.0162   -0.8135   28.8779 C   0  0  0  0  0  0  0  0  0  0  0  0
  -28.4690   -0.7850   29.8287 C   0  0  0  0  0  0  0  0  0  0  0  0
  -26.5042   -0.7777   28.8766 C   0  0  0  0  0  0  0  0  0  0  0  0
  -25.8103   -0.8531   30.1028 C   0  0  0  0  0  0  0  0  0  0  0  0
  -27.9906   -0.8916   31.2257 C   0  0  0  0  0  0  0  0  0  0  0  0
  -26.6042   -0.8676   31.2652 C   0  0  0  0  0  0  0  0  0  0  0  0
  -30.4622   -0.8398   29.8385 Br  0  0  0  0  0  0  0  0  0  0  0  0
  -24.3620   -0.8196   30.1394 C   0  0  0  0  0  0  0  0  0  0  0  0
  -23.6272   -0.4381   29.0831 C   0  0  0  0  0  0  0  0  0  0  0  0
  -22.1730   -0.3586   29.2483 C   0  0  0  0  0  0  0  0  0  0  0  0
  -21.4185    0.1456   28.1600 C   0  0  0  0  0  0  0  0  0  0  0  0
  -22.0500    1.0725   27.3012 C   0  0  0  0  0  0  0  0  0  0  0  0
  -23.4524    1.2862   27.3320 C   0  0  0  0  0  0  0  0  0  0  0  0
  -24.2097    0.6300   28.2615 C   0  0  0  0  0  0  0  0  0  0  0  0
  2  7  1  0
  4  8  1  0
  8  9  1  0
  9 10  2  0
 10 11  1  0
 11 12  2  0
 12 13  1  0
 13 14  2  0
 14  9  1  0
  1  2  2  0
  2  5  1  0
  5  6  2  0
  6  4  1  0
  4  3  2  0
  3  1  1  0
M  END

$$$$
