No_2516-gen_results/8p0m/2024-11-27-11-27-31/
     RDKit          3D

 22 22  0  0  0  0  0  0  0  0999 V2000
  -28.0162   -0.8135   28.8779 C   0  0  0  0  0  0  0  0  0  0  0  0
  -28.4690   -0.7850   29.8287 C   0  0  0  0  0  0  0  0  0  0  0  0
  -27.0871    0.2903   28.6377 C   0  0  0  0  0  0  0  0  0  0  0  0
  -26.8317    1.2487   29.5869 C   0  0  0  0  0  0  0  0  0  0  0  0
  -28.3914    0.0801   31.0065 C   0  0  0  0  0  0  0  0  0  0  0  0
  -27.4940    1.1521   30.7841 C   0  0  0  0  0  0  0  0  0  0  0  0
  -26.2790    0.6012   27.4101 C   0  0  0  0  0  0  0  0  0  0  0  0
  -26.6097    0.0654   26.4916 F   0  0  0  0  0  0  0  0  0  0  0  0
  -26.0653    1.7918   27.2155 F   0  0  0  0  0  0  0  0  0  0  0  0
  -24.9500    0.0527   27.6824 F   0  0  0  0  0  0  0  0  0  0  0  0
  -29.4513   -2.0303   30.2188 C   0  0  0  0  0  0  0  0  0  0  0  0
  -30.5284   -1.8835   29.8852 O   0  0  0  0  0  0  0  0  0  0  0  0
  -28.9857   -3.0783   30.8204 O   0  0  0  0  0  0  0  0  0  0  0  0
  -27.2687    2.1543   31.8625 C   0  0  0  0  0  0  0  0  0  0  0  0
  -27.1341    1.9477   32.9431 O   0  0  0  0  0  0  0  0  0  0  0  0
  -27.1278    3.3954   31.3520 O   0  0  0  0  0  0  0  0  0  0  0  0
  -29.4745   -4.3498   30.5270 C   0  0  0  0  0  0  0  0  0  0  0  0
  -29.6902   -4.7622   29.3400 C   0  0  0  0  0  0  0  0  0  0  0  0
  -30.8714   -5.6301   29.1620 C   0  0  0  0  0  0  0  0  0  0  0  0
  -31.2583   -6.4543   30.2196 C   0  0  0  0  0  0  0  0  0  0  0  0
  -29.0006   -5.3342   31.5922 C   0  0  0  0  0  0  0  0  0  0  0  0
  -28.3555   -4.6806   32.6326 F   0  0  0  0  0  0  0  0  0  0  0  0
  3  7  1  0
  7  8  1  0
  7  9  1  0
  7 10  1  0
  2 11  1  0
 11 12  2  0
 11 13  1  0
  6 14  1  0
 14 15  1  0
 14 16  2  0
 13 17  1  0
 17 18  1  0
 18 19  2  3
 19 20  1  0
 17 21  1  0
 21 22  1  0
  1  2  2  0
  2  5  1  0
  5  6  2  0
  6  4  1  0
  4  3  2  0
  3  1  1  0
M  END

$$$$
