No_2192-gen_results/8p0m/2024-11-27-11-27-31/
     RDKit          3D

 22 25  0  0  0  0  0  0  0  0999 V2000
  -28.0162   -0.8135   28.8779 C   0  0  0  0  0  0  0  0  0  0  0  0
  -28.4690   -0.7850   29.8287 C   0  0  0  0  0  0  0  0  0  0  0  0
  -26.5455   -0.8762   28.8500 C   0  0  0  0  0  0  0  0  0  0  0  0
  -25.8041   -1.0324   30.0571 C   0  0  0  0  0  0  0  0  0  0  0  0
  -27.9437   -0.9869   31.2075 C   0  0  0  0  0  0  0  0  0  0  0  0
  -26.5825   -1.0386   31.2231 C   0  0  0  0  0  0  0  0  0  0  0  0
  -29.9436   -0.6830   29.6853 N   0  0  0  0  0  0  0  0  0  0  0  0
  -30.4726    0.0145   28.8172 C   0  0  0  0  0  0  0  0  0  0  0  0
  -31.8182   -0.2292   28.5234 C   0  0  0  0  0  0  0  0  0  0  0  0
  -30.8249   -1.5328   30.4837 C   0  0  0  0  0  0  0  0  0  0  0  0
  -32.1164   -1.6968   30.2263 C   0  0  0  0  0  0  0  0  0  0  0  0
  -32.6664   -0.9294   29.2554 C   0  0  0  0  0  0  0  0  0  0  0  0
  -24.3701   -1.0830   30.0721 C   0  0  0  0  0  0  0  0  0  0  0  0
  -23.5920   -0.6767   29.0589 C   0  0  0  0  0  0  0  0  0  0  0  0
  -24.0445    0.1673   28.0627 C   0  0  0  0  0  0  0  0  0  0  0  0
  -23.5142    1.3792   27.8975 C   0  0  0  0  0  0  0  0  0  0  0  0
  -24.1715    2.3486   27.0186 C   0  0  0  0  0  0  0  0  0  0  0  0
  -23.6815    3.6397   26.8324 C   0  0  0  0  0  0  0  0  0  0  0  0
  -25.3022    1.7989   26.3439 C   0  0  0  0  0  0  0  0  0  0  0  0
  -25.7286    0.5704   26.4640 C   0  0  0  0  0  0  0  0  0  0  0  0
  -25.1598   -0.2259   27.3562 C   0  0  0  0  0  0  0  0  0  0  0  0
  -25.8645   -0.6267   27.7994 N   0  0  0  0  0  0  0  0  0  0  0  0
  2  7  1  0
  7  8  1  0
  7 10  1  0
 10 11  1  0
  9 12  1  0
  4 13  1  0
 13 14  2  0
 14 15  1  0
 17 18  1  0
  3 22  1  0
 21 22  1  0
  8  9  1  0
 12 11  1  0
 15 16  2  0
 16 17  1  0
 17 19  2  0
 19 20  1  0
 20 21  2  0
 21 15  1  0
  1  2  2  0
  2  5  1  0
  5  6  2  0
  6  4  1  0
  4  3  2  0
  3  1  1  0
M  END

$$$$
