No_2783-gen_results/8p0m/2024-11-27-11-27-31/
     RDKit          3D

 35 38  0  0  0  0  0  0  0  0999 V2000
  -28.0162   -0.8135   28.8779 C   0  0  0  0  0  0  0  0  0  0  0  0
  -27.0636   -0.1189   28.6079 C   0  0  0  0  0  0  0  0  0  0  0  0
  -26.9716    0.7139   27.5060 C   0  0  0  0  0  0  0  0  0  0  0  0
  -25.8206    1.4910   27.1160 C   0  0  0  0  0  0  0  0  0  0  0  0
  -24.6562    1.4242   27.9180 C   0  0  0  0  0  0  0  0  0  0  0  0
  -24.6847    0.5901   29.0659 C   0  0  0  0  0  0  0  0  0  0  0  0
  -25.8099   -0.1265   29.3338 C   0  0  0  0  0  0  0  0  0  0  0  0
  -29.2444   -0.0768   29.2011 C   0  0  0  0  0  0  0  0  0  0  0  0
  -29.7154    0.0025   30.2888 C   0  0  0  0  0  0  0  0  0  0  0  0
  -29.5418   -1.0909   31.2110 C   0  0  0  0  0  0  0  0  0  0  0  0
  -28.6855   -2.1315   30.9183 C   0  0  0  0  0  0  0  0  0  0  0  0
  -27.8002   -1.7840   29.9830 C   0  0  0  0  0  0  0  0  0  0  0  0
  -23.4812    2.2295   27.6448 C   0  0  0  0  0  0  0  0  0  0  0  0
  -23.4672    3.1328   26.8536 O   0  0  0  0  0  0  0  0  0  0  0  0
  -22.2796    1.9155   28.2003 O   0  0  0  0  0  0  0  0  0  0  0  0
  -26.6783   -2.4981   29.9682 F   0  0  0  0  0  0  0  0  0  0  0  0
  -28.3307    0.8561   26.4564 Cl  0  0  0  0  0  0  0  0  0  0  0  0
  -30.9587    0.8821   30.5547 C   0  0  0  0  0  0  0  0  0  0  0  0
  -31.4244    1.5809   29.6553 C   0  0  0  0  0  0  0  0  0  0  0  0
  -32.3256    2.6330   29.8881 C   0  0  0  0  0  0  0  0  0  0  0  0
  -32.8321    2.7779   31.2026 C   0  0  0  0  0  0  0  0  0  0  0  0
  -32.3350    2.0057   32.1970 C   0  0  0  0  0  0  0  0  0  0  0  0
  -31.3202    1.1096   31.9533 C   0  0  0  0  0  0  0  0  0  0  0  0
  -34.0320    3.9805   31.4754 Cl  0  0  0  0  0  0  0  0  0  0  0  0
  -32.7311    2.2103   33.4946 O   0  0  0  0  0  0  0  0  0  0  0  0
  -32.8261    1.2789   34.3398 C   0  0  0  0  0  0  0  0  0  0  0  0
  -32.1142    1.1347   35.3735 C   0  0  0  0  0  0  0  0  0  0  0  0
  -31.3300    2.2981   35.8474 C   0  0  0  0  0  0  0  0  0  0  0  0
  -30.3313    2.4649   35.9969 C   0  0  0  0  0  0  0  0  0  0  0  0
  -29.3073    1.3785   35.8427 C   0  0  0  0  0  0  0  0  0  0  0  0
  -27.9128    1.5631   35.8621 C   0  0  0  0  0  0  0  0  0  0  0  0
  -27.4647    2.9155   35.9546 C   0  0  0  0  0  0  0  0  0  0  0  0
  -28.2938    3.9773   36.0311 C   0  0  0  0  0  0  0  0  0  0  0  0
  -29.6490    3.7572   36.0067 C   0  0  0  0  0  0  0  0  0  0  0  0
  -32.3199    3.4091   36.2655 C   0  0  0  0  0  0  0  0  0  0  0  0
  5 13  1  0
 13 14  2  0
 13 15  1  0
 12 16  1  0
  3 17  1  0
  9 18  1  0
 21 24  1  0
 22 25  1  0
 25 26  1  0
 26 27  2  3
 27 28  1  0
 28 35  1  0
 28 29  1  0
  1  2  1  0
 18 19  2  0
 19 20  1  0
 20 21  2  0
 21 22  1  0
 22 23  2  0
 23 18  1  0
  2  3  2  0
  3  4  1  0
  4  5  2  0
  5  6  1  0
  6  7  2  0
  7  2  1  0
  1  8  2  0
  8  9  1  0
  9 10  2  0
 10 11  1  0
 11 12  2  0
 12  1  1  0
 29 30  2  0
 30 31  1  0
 31 32  2  0
 32 33  1  0
 33 34  2  0
 34 29  1  0
M  END

$$$$
