No_2500-gen_results/8p0m/2024-11-27-11-27-31/
     RDKit          3D

 15 16  0  0  0  0  0  0  0  0999 V2000
  -28.0544   -1.0498   28.7246 N   0  0  0  0  0  0  0  0  0  0  0  0
  -28.6544   -0.5669   29.5076 C   0  0  0  0  0  0  0  0  0  0  0  0
  -26.7777   -0.5807   28.6029 C   0  0  0  0  0  0  0  0  0  0  0  0
  -26.3876    0.2737   29.0792 C   0  0  0  0  0  0  0  0  0  0  0  0
  -28.4378    0.5086   30.2989 N   0  0  0  0  0  0  0  0  0  0  0  0
  -27.2061    0.9754   30.1197 C   0  0  0  0  0  0  0  0  0  0  0  0
  -29.9326   -1.1008   29.7035 O   0  0  0  0  0  0  0  0  0  0  0  0
  -24.9488    0.8851   29.0041 C   0  0  0  0  0  0  0  0  0  0  0  0
  -23.9427    0.2876   28.9143 C   0  0  0  0  0  0  0  0  0  0  0  0
  -22.5881    0.9021   28.6887 C   0  0  0  0  0  0  0  0  0  0  0  0
  -22.6759    2.1321   27.9785 C   0  0  0  0  0  0  0  0  0  0  0  0
  -24.8243    2.3446   28.9317 C   0  0  0  0  0  0  0  0  0  0  0  0
  -23.7153    2.9110   28.2681 C   0  0  0  0  0  0  0  0  0  0  0  0
  -21.6122    0.0469   28.4174 F   0  0  0  0  0  0  0  0  0  0  0  0
  -25.9128   -1.2415   27.6030 N   0  0  0  0  0  0  0  0  0  0  0  0
  1  2  1  0
  1  3  1  0
  2  5  1  0
  4  6  1  0
  2  7  2  0
  4  8  1  0
 10 14  1  0
  3 15  1  0
  3  4  1  0
  6  5  1  0
  8  9  2  0
  9 10  1  0
 10 11  2  0
 11 13  1  0
 13 12  2  0
 12  8  1  0
M  END

$$$$
