No_2712-gen_results/8p0m/2024-11-27-11-27-31/
     RDKit          3D

 17 17  0  0  0  0  0  0  0  0999 V2000
  -28.0162   -0.8135   28.8779 C   0  0  0  0  0  0  0  0  0  0  0  0
  -28.4690   -0.7850   29.8287 C   0  0  0  0  0  0  0  0  0  0  0  0
  -27.0871    0.2903   28.6377 C   0  0  0  0  0  0  0  0  0  0  0  0
  -26.2516    0.4114   27.4223 C   0  0  0  0  0  0  0  0  0  0  0  0
  -28.3913    0.1041   30.9805 C   0  0  0  0  0  0  0  0  0  0  0  0
  -27.5332    1.1666   30.7866 C   0  0  0  0  0  0  0  0  0  0  0  0
  -26.8281    1.2557   29.6454 C   0  0  0  0  0  0  0  0  0  0  0  0
  -26.4955   -0.2382   26.5458 F   0  0  0  0  0  0  0  0  0  0  0  0
  -24.9921    0.2883   27.7427 F   0  0  0  0  0  0  0  0  0  0  0  0
  -26.2881    1.7595   26.9323 F   0  0  0  0  0  0  0  0  0  0  0  0
  -29.6018   -2.3967   30.1177 Br  0  0  0  0  0  0  0  0  0  0  0  0
  -27.3428    2.2063   31.8455 C   0  0  0  0  0  0  0  0  0  0  0  0
  -27.5048    3.3006   31.7015 N   0  0  0  0  0  0  0  0  0  0  0  0
  -26.9999    4.3139   32.2862 C   0  0  0  0  0  0  0  0  0  0  0  0
  -27.1314    5.7375   31.8743 C   0  0  0  0  0  0  0  0  0  0  0  0
  -27.6837    5.9271   30.6895 C   0  0  0  0  0  0  0  0  0  0  0  0
  -28.1651    4.8338   29.9523 C   0  0  0  0  0  0  0  0  0  0  0  0
  3  4  1  0
  4  8  1  0
  4  9  1  0
  4 10  1  0
  2 11  1  0
  6 12  1  0
 12 13  1  0
 13 14  2  3
 14 15  1  0
 15 16  2  3
 16 17  1  0
  1  2  2  0
  2  5  1  0
  5  6  2  0
  6  7  1  0
  7  3  2  0
  3  1  1  0
M  END

$$$$
