No_2254-gen_results/8p0m/2024-11-27-11-27-31/
     RDKit          3D

 34 37  0  0  0  0  0  0  0  0999 V2000
  -28.0162   -0.8135   28.8779 C   0  0  0  0  0  0  0  0  0  0  0  0
  -28.4690   -0.7850   29.8287 C   0  0  0  0  0  0  0  0  0  0  0  0
  -27.0871    0.2903   28.6377 C   0  0  0  0  0  0  0  0  0  0  0  0
  -26.2516    0.4114   27.4223 C   0  0  0  0  0  0  0  0  0  0  0  0
  -28.3913    0.1041   30.9805 C   0  0  0  0  0  0  0  0  0  0  0  0
  -27.5332    1.1666   30.7866 C   0  0  0  0  0  0  0  0  0  0  0  0
  -26.8281    1.2557   29.6454 C   0  0  0  0  0  0  0  0  0  0  0  0
  -26.4955   -0.2382   26.5458 F   0  0  0  0  0  0  0  0  0  0  0  0
  -24.9921    0.2883   27.7427 F   0  0  0  0  0  0  0  0  0  0  0  0
  -26.2881    1.7595   26.9323 F   0  0  0  0  0  0  0  0  0  0  0  0
  -29.4618   -2.0263   30.2116 C   0  0  0  0  0  0  0  0  0  0  0  0
  -29.0077   -3.1803   30.3970 O   0  0  0  0  0  0  0  0  0  0  0  0
  -30.6665   -1.8380   30.3555 O   0  0  0  0  0  0  0  0  0  0  0  0
  -27.3151    2.1890   31.8297 C   0  0  0  0  0  0  0  0  0  0  0  0
  -26.5000    3.0273   31.7377 C   0  0  0  0  0  0  0  0  0  0  0  0
  -26.2117    4.1153   32.7517 C   0  0  0  0  0  0  0  0  0  0  0  0
  -26.9097    4.0479   33.9243 C   0  0  0  0  0  0  0  0  0  0  0  0
  -27.8315    3.0220   34.0672 C   0  0  0  0  0  0  0  0  0  0  0  0
  -28.0552    2.0919   33.0774 C   0  0  0  0  0  0  0  0  0  0  0  0
  -25.1620    5.1415   32.4996 C   0  0  0  0  0  0  0  0  0  0  0  0
  -25.2769    5.8256   31.3892 N   0  0  0  0  0  0  0  0  0  0  0  0
  -25.0174    7.1632   31.3856 C   0  0  0  0  0  0  0  0  0  0  0  0
  -24.9910    7.4672   30.0246 F   0  0  0  0  0  0  0  0  0  0  0  0
  -23.7630    7.6476   31.8857 N   0  0  0  0  0  0  0  0  0  0  0  0
  -26.2022    7.9607   32.0008 C   0  0  0  0  0  0  0  0  0  0  0  0
  -26.0632    8.3307   33.2246 C   0  0  0  0  0  0  0  0  0  0  0  0
  -23.5944    8.0790   33.1358 C   0  0  0  0  0  0  0  0  0  0  0  0
  -24.5827    8.3741   33.8982 C   0  0  0  0  0  0  0  0  0  0  0  0
  -25.5832    5.0921   30.2363 C   0  0  0  0  0  0  0  0  0  0  0  0
  -25.7170    5.6059   29.1547 O   0  0  0  0  0  0  0  0  0  0  0  0
  -25.9539    3.7727   30.5012 N   0  0  0  0  0  0  0  0  0  0  0  0
  -24.4407    8.8925   35.2566 C   0  0  0  0  0  0  0  0  0  0  0  0
  -25.4420    9.3347   35.9218 C   0  0  0  0  0  0  0  0  0  0  0  0
  -25.2887    9.7010   37.2811 C   0  0  0  0  0  0  0  0  0  0  0  0
  3  4  1  0
  4  8  1  0
  4  9  1  0
  4 10  1  0
  2 11  1  0
 11 12  2  0
 11 13  1  0
  6 14  1  0
 16 20  1  0
 20 21  1  0
 21 22  1  0
 22 23  1  0
 22 24  1  0
 22 25  1  0
 25 26  2  0
 24 27  2  0
 26 28  1  0
 27 28  1  0
 21 29  1  0
 29 30  2  0
 15 31  1  0
 29 31  1  0
 28 32  1  0
 32 33  2  3
 33 34  1  0
 14 15  2  0
 15 16  1  0
 16 17  2  0
 17 18  1  0
 18 19  2  0
 19 14  1  0
  1  2  2  0
  2  5  1  0
  5  6  2  0
  6  7  1  0
  7  3  2  0
  3  1  1  0
M  END

$$$$
