No_2852-gen_results/8p0m/2024-11-27-11-27-31/
     RDKit          3D

 15 17  0  0  0  0  0  0  0  0999 V2000
  -28.0162   -0.8135   28.8779 C   0  0  0  0  0  0  0  0  0  0  0  0
  -28.4690   -0.7850   29.8287 C   0  0  0  0  0  0  0  0  0  0  0  0
  -28.1960    0.3478   28.0550 C   0  0  0  0  0  0  0  0  0  0  0  0
  -27.4421    0.5100   26.7946 C   0  0  0  0  0  0  0  0  0  0  0  0
  -27.8427    1.3330   25.8056 C   0  0  0  0  0  0  0  0  0  0  0  0
  -29.1180   -0.1255   30.3020 C   0  0  0  0  0  0  0  0  0  0  0  0
  -29.5043    1.0874   29.7723 C   0  0  0  0  0  0  0  0  0  0  0  0
  -28.9390    1.3854   28.5396 C   0  0  0  0  0  0  0  0  0  0  0  0
  -26.1236   -0.0646   26.6031 C   0  0  0  0  0  0  0  0  0  0  0  0
  -25.3691    0.2095   25.4592 C   0  0  0  0  0  0  0  0  0  0  0  0
  -27.1734    1.4975   24.5542 C   0  0  0  0  0  0  0  0  0  0  0  0
  -25.8795    0.9154   24.4387 C   0  0  0  0  0  0  0  0  0  0  0  0
  -29.2249    2.6026   27.8214 C   0  0  0  0  0  0  0  0  0  0  0  0
  -28.8184    2.5415   26.3401 C   0  0  0  0  0  0  0  0  0  0  0  0
  -30.6721    2.9883   27.7747 C   0  0  0  0  0  0  0  0  0  0  0  0
 13 15  1  0
  3  4  2  0
  5 14  2  0
 14 13  1  0
 13  8  2  0
  4  5  1  0
  5 11  1  0
 11 12  2  0
 12 10  1  0
 10  9  2  0
  9  4  1  0
  1  2  2  0
  2  6  1  0
  6  7  2  0
  7  8  1  0
  8  3  1  0
  3  1  1  0
M  END

$$$$
