No_2667-gen_results/8p0m/2024-11-27-11-27-31/
     RDKit          3D

 35 38  0  0  0  0  0  0  0  0999 V2000
  -28.0162   -0.8135   28.8779 C   0  0  0  0  0  0  0  0  0  0  0  0
  -28.4690   -0.7850   29.8287 C   0  0  0  0  0  0  0  0  0  0  0  0
  -28.1960    0.3478   28.0550 C   0  0  0  0  0  0  0  0  0  0  0  0
  -29.0191    1.3501   28.3782 C   0  0  0  0  0  0  0  0  0  0  0  0
  -28.3170   -1.9812   30.8560 C   0  0  0  0  0  0  0  0  0  0  0  0
  -29.5950    1.2859   29.6049 C   0  0  0  0  0  0  0  0  0  0  0  0
  -29.3465    0.2093   30.3749 C   0  0  0  0  0  0  0  0  0  0  0  0
  -28.0370   -3.0446   30.4535 O   0  0  0  0  0  0  0  0  0  0  0  0
  -28.6096   -1.8350   32.2313 N   0  0  0  0  0  0  0  0  0  0  0  0
  -27.5437    0.5055   26.6524 C   0  0  0  0  0  0  0  0  0  0  0  0
  -28.0780    1.0000   25.6201 C   0  0  0  0  0  0  0  0  0  0  0  0
  -26.1718   -0.0036   26.5300 C   0  0  0  0  0  0  0  0  0  0  0  0
  -25.2570   -0.0770   27.6465 C   0  0  0  0  0  0  0  0  0  0  0  0
  -24.7488    0.9909   28.3062 C   0  0  0  0  0  0  0  0  0  0  0  0
  -24.6688    2.2754   27.7036 C   0  0  0  0  0  0  0  0  0  0  0  0
  -23.9884    2.5502   26.8019 N   0  0  0  0  0  0  0  0  0  0  0  0
  -25.3583    3.2315   28.3754 O   0  0  0  0  0  0  0  0  0  0  0  0
  -28.7959    2.0425   25.6660 N   0  0  0  0  0  0  0  0  0  0  0  0
  -28.1089    0.3733   24.4595 N   0  0  0  0  0  0  0  0  0  0  0  0
  -29.2285    2.6586   24.6389 C   0  0  0  0  0  0  0  0  0  0  0  0
  -30.2629    2.4699   24.1383 C   0  0  0  0  0  0  0  0  0  0  0  0
  -31.4410    2.7468   24.6533 C   0  0  0  0  0  0  0  0  0  0  0  0
  -32.7233    2.4163   24.0389 C   0  0  0  0  0  0  0  0  0  0  0  0
  -32.6319    1.7923   22.7987 C   0  0  0  0  0  0  0  0  0  0  0  0
  -31.4725    1.5698   22.1426 C   0  0  0  0  0  0  0  0  0  0  0  0
  -30.3278    1.9334   22.7512 C   0  0  0  0  0  0  0  0  0  0  0  0
  -23.0914    1.6707   26.0958 C   0  0  0  0  0  0  0  0  0  0  0  0
  -24.6364    0.8536   29.8381 C   0  0  0  0  0  0  0  0  0  0  0  0
  -23.6026   -0.1177   30.2865 Br  0  0  0  0  0  0  0  0  0  0  0  0
  -25.5453    1.4952   30.5159 F   0  0  0  0  0  0  0  0  0  0  0  0
  -28.8234   -0.5894   32.9208 C   0  0  0  0  0  0  0  0  0  0  0  0
  -29.5234    0.3659   32.0683 C   0  0  0  0  0  0  0  0  0  0  0  0
  -25.6460   -0.2944   25.2742 C   0  0  0  0  0  0  0  0  0  0  0  0
  -26.6847   -0.1684   24.2073 C   0  0  0  0  0  0  0  0  0  0  0  0
  -30.1119    1.5172   32.5670 C   0  0  0  0  0  0  0  0  0  0  0  0
  2  5  1  0
  5  8  2  0
  5  9  1  0
  3 10  1  0
 12 13  1  0
 13 14  2  3
 14 15  1  0
 15 16  1  0
 15 17  2  0
 18 20  1  0
 20 21  1  0
 16 27  1  0
 14 28  1  0
 28 29  1  0
 28 30  1  0
  9 31  1  0
  7 32  1  0
 31 32  1  0
 32 35  1  0
 18 11  1  0
 21 22  2  0
 22 23  1  0
 23 24  2  0
 24 25  1  0
 25 26  2  0
 26 21  1  0
 10 11  2  0
 11 19  1  0
 19 34  2  0
 34 33  1  0
 33 12  2  0
 12 10  1  0
  1  2  2  0
  2  7  1  0
  7  6  2  0
  6  4  1  0
  4  3  2  0
  3  1  1  0
M  END

$$$$
