No_258-gen_results/8p0m/2024-11-27-11-27-31/
     RDKit          3D

 35 40  0  0  0  0  0  0  0  0999 V2000
  -28.0162   -0.8135   28.8779 C   0  0  0  0  0  0  0  0  0  0  0  0
  -28.4690   -0.7850   29.8287 C   0  0  0  0  0  0  0  0  0  0  0  0
  -28.1816    0.4277   28.1134 C   0  0  0  0  0  0  0  0  0  0  0  0
  -28.9841    1.4155   28.5154 C   0  0  0  0  0  0  0  0  0  0  0  0
  -29.3802    0.1384   30.4612 C   0  0  0  0  0  0  0  0  0  0  0  0
  -29.5415    1.2736   29.7242 C   0  0  0  0  0  0  0  0  0  0  0  0
  -27.5429    0.6374   26.7442 C   0  0  0  0  0  0  0  0  0  0  0  0
  -28.1415    0.4408   25.6716 N   0  0  0  0  0  0  0  0  0  0  0  0
  -26.0672    0.7947   26.7125 C   0  0  0  0  0  0  0  0  0  0  0  0
  -25.5000    1.2413   25.6072 C   0  0  0  0  0  0  0  0  0  0  0  0
  -27.5537    0.7413   24.4594 C   0  0  0  0  0  0  0  0  0  0  0  0
  -26.2133    1.0284   24.3804 C   0  0  0  0  0  0  0  0  0  0  0  0
  -29.5472    0.1421   25.6239 C   0  0  0  0  0  0  0  0  0  0  0  0
  -30.0504   -0.4502   24.4851 C   0  0  0  0  0  0  0  0  0  0  0  0
  -31.3505   -0.9121   24.6027 C   0  0  0  0  0  0  0  0  0  0  0  0
  -32.1607   -0.8632   25.6927 C   0  0  0  0  0  0  0  0  0  0  0  0
  -31.6203   -0.2188   26.8348 C   0  0  0  0  0  0  0  0  0  0  0  0
  -30.3110    0.2339   26.8194 C   0  0  0  0  0  0  0  0  0  0  0  0
  -29.8807    0.9260   27.8959 N   0  0  0  0  0  0  0  0  0  0  0  0
  -31.1457    1.4866   28.3930 C   0  0  0  0  0  0  0  0  0  0  0  0
  -32.2332    0.6798   27.7568 C   0  0  0  0  0  0  0  0  0  0  0  0
  -33.6063    0.5434   28.1235 C   0  0  0  0  0  0  0  0  0  0  0  0
  -24.0569    1.4364   25.5429 C   0  0  0  0  0  0  0  0  0  0  0  0
  -23.4145    2.0719   26.7644 C   0  0  0  0  0  0  0  0  0  0  0  0
  -24.0758    2.8406   27.6703 C   0  0  0  0  0  0  0  0  0  0  0  0
  -25.1596    3.4911   27.3258 N   0  0  0  0  0  0  0  0  0  0  0  0
  -25.6989    4.3421   28.2917 C   0  0  0  0  0  0  0  0  0  0  0  0
  -25.9950    5.6656   27.8193 C   0  0  0  0  0  0  0  0  0  0  0  0
  -26.2514    6.5977   28.7363 C   0  0  0  0  0  0  0  0  0  0  0  0
  -26.1250    4.1556   29.5091 C   0  0  0  0  0  0  0  0  0  0  0  0
  -26.5180    4.9920   30.4641 C   0  0  0  0  0  0  0  0  0  0  0  0
  -26.6237    6.3528   30.0438 C   0  0  0  0  0  0  0  0  0  0  0  0
  -29.9628    2.4229   30.6200 C   0  0  0  0  0  0  0  0  0  0  0  0
  -29.7007    2.4717   31.8684 N   0  0  0  0  0  0  0  0  0  0  0  0
  -30.5088    3.4918   30.1233 O   0  0  0  0  0  0  0  0  0  0  0  0
  3  7  1  0
  7  8  1  0
  7  9  1  0
  8 11  1  0
 10 12  1  0
  8 13  1  0
  4 19  1  0
 18 19  1  0
 19 20  1  0
 17 21  1  0
 20 21  2  0
 21 22  1  0
 10 23  1  0
 23 24  1  0
 24 25  2  0
 25 26  2  0
 26 27  1  0
  6 33  1  0
 33 34  1  0
 33 35  2  0
  9 10  1  0
 12 11  1  0
 13 14  2  0
 14 15  1  0
 15 16  2  0
 16 17  1  0
 17 18  2  0
 18 13  1  0
  1  2  2  0
  2  5  1  0
  5  6  2  0
  6  4  1  0
  4  3  2  0
  3  1  1  0
 27 28  2  0
 28 29  1  0
 29 32  2  0
 32 31  1  0
 31 30  2  0
 30 27  1  0
M  END

$$$$
