No_2840-gen_results/8p0m/2024-11-27-11-27-31/
     RDKit          3D

 35 38  0  0  0  0  0  0  0  0999 V2000
  -28.1229   -1.3353   28.4874 O   0  0  0  0  0  0  0  0  0  0  0  0
  -28.5208   -0.4363   29.0779 C   0  0  0  0  0  0  0  0  0  0  0  0
  -29.6180    0.0238   29.0240 N   0  0  0  0  0  0  0  0  0  0  0  0
  -27.3832    0.4408   29.7360 C   0  0  0  0  0  0  0  0  0  0  0  0
  -27.4019    0.4912   30.9809 C   0  0  0  0  0  0  0  0  0  0  0  0
  -30.6420   -0.5737   28.4392 C   0  0  0  0  0  0  0  0  0  0  0  0
  -26.3379    1.2223   31.7384 C   0  0  0  0  0  0  0  0  0  0  0  0
  -25.2715    1.8074   31.0039 C   0  0  0  0  0  0  0  0  0  0  0  0
  -25.2931    1.6287   29.6215 C   0  0  0  0  0  0  0  0  0  0  0  0
  -26.2834    0.9186   28.9872 C   0  0  0  0  0  0  0  0  0  0  0  0
  -31.5326   -1.3942   29.1487 C   0  0  0  0  0  0  0  0  0  0  0  0
  -32.2655   -2.1996   28.5216 O   0  0  0  0  0  0  0  0  0  0  0  0
  -31.5393   -1.4271   30.5102 N   0  0  0  0  0  0  0  0  0  0  0  0
  -30.7352   -0.3186   27.2095 O   0  0  0  0  0  0  0  0  0  0  0  0
  -32.1182   -2.0680   31.2785 C   0  0  0  0  0  0  0  0  0  0  0  0
  -24.1499    2.1582   28.8685 C   0  0  0  0  0  0  0  0  0  0  0  0
  -24.3139    2.9882   27.9628 N   0  0  0  0  0  0  0  0  0  0  0  0
  -22.9408    1.7349   29.0868 O   0  0  0  0  0  0  0  0  0  0  0  0
  -25.6214    3.6112   27.5878 C   0  0  0  0  0  0  0  0  0  0  0  0
  -25.6670    4.1511   26.5342 C   0  0  0  0  0  0  0  0  0  0  0  0
  -25.8547    4.7268   28.6939 C   0  0  0  0  0  0  0  0  0  0  0  0
  -26.8150    5.2299   28.8080 C   0  0  0  0  0  0  0  0  0  0  0  0
  -27.4146    5.7464   27.4872 C   0  0  0  0  0  0  0  0  0  0  0  0
  -27.0098    4.9622   26.3569 C   0  0  0  0  0  0  0  0  0  0  0  0
  -27.5164    5.8568   29.9694 C   0  0  0  0  0  0  0  0  0  0  0  0
  -27.2746    6.8457   30.5398 C   0  0  0  0  0  0  0  0  0  0  0  0
  -28.5748    4.9110   30.5026 C   0  0  0  0  0  0  0  0  0  0  0  0
  -27.8792    7.3927   31.7496 C   0  0  0  0  0  0  0  0  0  0  0  0
  -29.2747    5.3310   31.6946 C   0  0  0  0  0  0  0  0  0  0  0  0
  -28.9054    6.5687   32.2941 C   0  0  0  0  0  0  0  0  0  0  0  0
  -29.5557    6.9430   33.3775 F   0  0  0  0  0  0  0  0  0  0  0  0
  -31.8563   -1.9632   32.5331 C   0  0  0  0  0  0  0  0  0  0  0  0
  -31.0286   -1.4802   33.0544 C   0  0  0  0  0  0  0  0  0  0  0  0
  -30.1211   -0.6015   32.2321 C   0  0  0  0  0  0  0  0  0  0  0  0
  -30.3430   -0.6780   30.9934 C   0  0  0  0  0  0  0  0  0  0  0  0
  1  2  2  0
  2  3  1  0
  2  4  1  0
  3  6  1  0
  6 11  1  0
 11 12  2  0
 11 13  1  0
  6 14  2  0
 13 15  1  0
  9 16  1  0
 16 17  1  0
 16 18  2  0
 17 19  1  0
 22 25  1  0
 30 31  1  0
 32 33  1  0
 13 35  1  0
 34 35  1  0
 15 32  1  0
 33 34  1  0
  4  5  2  0
  5  7  1  0
  7  8  2  0
  8  9  1  0
  9 10  2  0
 10  4  1  0
 25 26  2  0
 26 28  1  0
 28 30  2  0
 30 29  1  0
 29 27  2  0
 27 25  1  0
 19 20  2  0
 20 24  1  0
 24 23  2  0
 23 22  1  0
 22 21  2  0
 21 19  1  0
M  END

$$$$
