No_2346-gen_results/8p0m/2024-11-27-11-27-31/
     RDKit          3D

 35 37  0  0  0  0  0  0  0  0999 V2000
  -28.0162   -0.8135   28.8779 C   0  0  0  0  0  0  0  0  0  0  0  0
  -27.0636   -0.1189   28.6079 C   0  0  0  0  0  0  0  0  0  0  0  0
  -26.9287    1.1713   29.0083 C   0  0  0  0  0  0  0  0  0  0  0  0
  -25.7702    2.0341   28.6884 C   0  0  0  0  0  0  0  0  0  0  0  0
  -24.7141    1.4431   27.9188 C   0  0  0  0  0  0  0  0  0  0  0  0
  -24.8590    0.0783   27.5836 C   0  0  0  0  0  0  0  0  0  0  0  0
  -25.9647   -0.6606   27.9164 C   0  0  0  0  0  0  0  0  0  0  0  0
  -28.6995   -0.6441   30.0766 N   0  0  0  0  0  0  0  0  0  0  0  0
  -29.4717   -1.1161   30.6970 C   0  0  0  0  0  0  0  0  0  0  0  0
  -30.3288   -0.8166   32.2495 Br  0  0  0  0  0  0  0  0  0  0  0  0
  -29.9738   -2.4035   30.2912 O   0  0  0  0  0  0  0  0  0  0  0  0
  -23.5418    2.1695   27.5597 C   0  0  0  0  0  0  0  0  0  0  0  0
  -22.3998    2.2071   27.9009 N   0  0  0  0  0  0  0  0  0  0  0  0
  -23.7941    2.9424   26.2513 C   0  0  0  0  0  0  0  0  0  0  0  0
  -22.0107    1.2876   28.8518 C   0  0  0  0  0  0  0  0  0  0  0  0
  -20.8404    0.4342   28.4167 C   0  0  0  0  0  0  0  0  0  0  0  0
  -22.6433    1.0628   29.8702 O   0  0  0  0  0  0  0  0  0  0  0  0
  -25.6784    3.3985   29.1242 C   0  0  0  0  0  0  0  0  0  0  0  0
  -26.6050    4.3434   28.4193 C   0  0  0  0  0  0  0  0  0  0  0  0
  -27.4363    4.9503   29.1467 C   0  0  0  0  0  0  0  0  0  0  0  0
  -27.2970    5.2031   30.3692 C   0  0  0  0  0  0  0  0  0  0  0  0
  -28.2472    5.8593   31.2631 C   0  0  0  0  0  0  0  0  0  0  0  0
  -28.0510    6.0120   32.6375 C   0  0  0  0  0  0  0  0  0  0  0  0
  -26.8152    5.5456   33.2241 C   0  0  0  0  0  0  0  0  0  0  0  0
  -25.8429    4.9407   32.4276 C   0  0  0  0  0  0  0  0  0  0  0  0
  -26.0736    4.7813   31.0847 C   0  0  0  0  0  0  0  0  0  0  0  0
  -25.8971    3.5016   30.5813 O   0  0  0  0  0  0  0  0  0  0  0  0
  -26.4266    4.3454   27.1028 O   0  0  0  0  0  0  0  0  0  0  0  0
  -29.4554    6.3302   30.7209 C   0  0  0  0  0  0  0  0  0  0  0  0
  -30.3829    6.7092   31.4476 N   0  0  0  0  0  0  0  0  0  0  0  0
  -29.4603    6.6694   29.5052 O   0  0  0  0  0  0  0  0  0  0  0  0
  -31.6737    7.2193   31.0404 C   0  0  0  0  0  0  0  0  0  0  0  0
  -32.5458    7.3831   31.8533 C   0  0  0  0  0  0  0  0  0  0  0  0
  -33.7632    7.9565   31.5768 C   0  0  0  0  0  0  0  0  0  0  0  0
  -33.9942    8.3063   30.1976 C   0  0  0  0  0  0  0  0  0  0  0  0
  1  2  1  0
  2  3  2  0
  3  4  1  0
  4  5  2  0
  5  6  1  0
  2  7  1  0
  6  7  2  0
  1  8  1  0
  8  9  1  0
  9 10  1  0
  9 11  2  0
  5 12  1  0
 12 13  2  3
 12 14  1  0
 13 15  1  0
 15 16  1  0
 15 17  2  0
  4 18  1  0
 18 19  1  0
 19 20  1  0
 20 21  2  0
 21 22  1  0
 22 23  2  0
 23 24  1  0
 24 25  2  0
 21 26  1  0
 25 26  1  0
 18 27  1  0
 26 27  1  0
 19 28  2  0
 22 29  1  0
 29 30  1  0
 29 31  2  0
 30 32  1  0
 32 33  1  0
 33 34  2  3
 34 35  1  0
M  END

$$$$
