No_2706-gen_results/8p0m/2024-11-27-11-27-31/
     RDKit          3D

 29 31  0  0  0  0  0  0  0  0999 V2000
  -28.0162   -0.8135   28.8779 C   0  0  0  0  0  0  0  0  0  0  0  0
  -27.0636   -0.1190   28.6079 C   0  0  0  0  0  0  0  0  0  0  0  0
  -25.7647   -0.3897   29.0360 C   0  0  0  0  0  0  0  0  0  0  0  0
  -25.5296   -1.5302   29.9014 C   0  0  0  0  0  0  0  0  0  0  0  0
  -24.3236   -1.9076   30.4324 C   0  0  0  0  0  0  0  0  0  0  0  0
  -27.9274   -1.9227   29.7902 C   0  0  0  0  0  0  0  0  0  0  0  0
  -26.6914   -2.2806   30.2948 C   0  0  0  0  0  0  0  0  0  0  0  0
  -23.2356   -1.1082   30.4488 N   0  0  0  0  0  0  0  0  0  0  0  0
  -23.1321   -0.0693   31.3524 C   0  0  0  0  0  0  0  0  0  0  0  0
  -22.3809   -0.9786   29.2965 C   0  0  0  0  0  0  0  0  0  0  0  0
  -27.1369    0.9448   27.7562 F   0  0  0  0  0  0  0  0  0  0  0  0
  -21.8153    0.3462   28.9708 C   0  0  0  0  0  0  0  0  0  0  0  0
  -21.0665    0.3150   27.7294 C   0  0  0  0  0  0  0  0  0  0  0  0
  -29.0733   -2.4822   30.1733 F   0  0  0  0  0  0  0  0  0  0  0  0
  -21.5159    1.5182   27.2085 C   0  0  0  0  0  0  0  0  0  0  0  0
  -22.9489    1.8058   27.1021 C   0  0  0  0  0  0  0  0  0  0  0  0
  -23.5809    2.3531   28.2736 C   0  0  0  0  0  0  0  0  0  0  0  0
  -23.6563    1.7087   29.5454 C   0  0  0  0  0  0  0  0  0  0  0  0
  -22.3283    1.3600   29.6161 O   0  0  0  0  0  0  0  0  0  0  0  0
  -24.9623    2.9186   27.8706 O   0  0  0  0  0  0  0  0  0  0  0  0
  -25.4589    3.9399   28.5487 C   0  0  0  0  0  0  0  0  0  0  0  0
  -26.0277    4.8112   27.8694 C   0  0  0  0  0  0  0  0  0  0  0  0
  -26.6361    5.9944   28.4986 C   0  0  0  0  0  0  0  0  0  0  0  0
  -26.6298    6.0687   29.9119 C   0  0  0  0  0  0  0  0  0  0  0  0
  -25.9852    5.0427   30.6098 C   0  0  0  0  0  0  0  0  0  0  0  0
  -25.4243    4.0029   29.9907 C   0  0  0  0  0  0  0  0  0  0  0  0
  -25.9748    5.1026   32.1237 C   0  0  0  0  0  0  0  0  0  0  0  0
  -25.1490    5.6857   32.6682 O   0  0  0  0  0  0  0  0  0  0  0  0
  -26.8918    4.3626   32.7232 O   0  0  0  0  0  0  0  0  0  0  0  0
  4  5  1  0
  5  8  1  0
  8  9  1  0
  8 10  1  0
  2 11  1  0
 10 12  1  0
 12 13  1  0
  6 14  1  0
 13 15  1  0
 15 16  1  0
 16 17  1  0
 17 18  2  0
 12 19  1  0
 18 19  1  0
 17 20  1  0
 20 21  1  0
 25 27  1  0
 27 28  2  0
 27 29  1  0
 21 22  2  0
 22 23  1  0
 23 24  2  0
 24 25  1  0
 25 26  2  0
 26 21  1  0
  1  2  2  0
  2  3  1  0
  3  4  2  0
  4  7  1  0
  7  6  2  0
  6  1  1  0
M  END

$$$$
