No_2411-gen_results/8p0m/2024-11-27-11-27-31/
     RDKit          3D

 35 36  0  0  0  0  0  0  0  0999 V2000
  -28.0162   -0.8135   28.8779 C   0  0  0  0  0  0  0  0  0  0  0  0
  -28.4690   -0.7850   29.8287 C   0  0  0  0  0  0  0  0  0  0  0  0
  -26.5042   -0.7777   28.8766 C   0  0  0  0  0  0  0  0  0  0  0  0
  -25.6540   -0.6597   27.7191 C   0  0  0  0  0  0  0  0  0  0  0  0
  -27.9180   -0.9374   31.1824 C   0  0  0  0  0  0  0  0  0  0  0  0
  -26.5423   -0.9399   31.2606 C   0  0  0  0  0  0  0  0  0  0  0  0
  -25.7832   -0.8935   30.1201 C   0  0  0  0  0  0  0  0  0  0  0  0
  -25.9259    0.2819   26.7445 C   0  0  0  0  0  0  0  0  0  0  0  0
  -25.6258    1.4719   26.8191 C   0  0  0  0  0  0  0  0  0  0  0  0
  -24.6423    1.8901   27.7991 C   0  0  0  0  0  0  0  0  0  0  0  0
  -23.2594    1.8564   27.2789 C   0  0  0  0  0  0  0  0  0  0  0  0
  -24.8070    3.3425   28.3575 C   0  0  0  0  0  0  0  0  0  0  0  0
  -26.4289   -0.2439   25.4493 C   0  0  0  0  0  0  0  0  0  0  0  0
  -25.6985    3.4181   29.5346 C   0  0  0  0  0  0  0  0  0  0  0  0
  -25.1980    3.3405   30.5754 O   0  0  0  0  0  0  0  0  0  0  0  0
  -26.9355    3.3851   29.3203 O   0  0  0  0  0  0  0  0  0  0  0  0
  -25.6778   -0.7483   24.6894 F   0  0  0  0  0  0  0  0  0  0  0  0
  -27.0171    0.8115   24.7241 F   0  0  0  0  0  0  0  0  0  0  0  0
  -22.2924    1.0732   28.0607 C   0  0  0  0  0  0  0  0  0  0  0  0
  -20.9890    1.0339   27.8110 C   0  0  0  0  0  0  0  0  0  0  0  0
  -22.7587    0.3437   29.2249 C   0  0  0  0  0  0  0  0  0  0  0  0
  -21.8680   -0.4262   29.9608 C   0  0  0  0  0  0  0  0  0  0  0  0
  -20.1167    0.2694   28.5511 C   0  0  0  0  0  0  0  0  0  0  0  0
  -20.5912   -0.5096   29.6212 C   0  0  0  0  0  0  0  0  0  0  0  0
  -27.5325   -0.9785   25.5201 F   0  0  0  0  0  0  0  0  0  0  0  0
  -24.6999   -1.6938   27.5155 C   0  0  0  0  0  0  0  0  0  0  0  0
  -30.0824   -0.7137   29.8818 C   0  0  0  0  0  0  0  0  0  0  0  0
  -30.6600   -0.1749   30.7855 O   0  0  0  0  0  0  0  0  0  0  0  0
  -30.6584   -1.1196   28.8345 O   0  0  0  0  0  0  0  0  0  0  0  0
  -25.3099    4.2537   27.4073 O   0  0  0  0  0  0  0  0  0  0  0  0
  -27.8229    3.0015   30.4115 C   0  0  0  0  0  0  0  0  0  0  0  0
  -29.2419    3.1367   29.9471 C   0  0  0  0  0  0  0  0  0  0  0  0
  -29.4496    3.5431   28.6725 C   0  0  0  0  0  0  0  0  0  0  0  0
  -28.6908    3.9744   28.0271 F   0  0  0  0  0  0  0  0  0  0  0  0
  -30.1577    2.4440   27.9544 F   0  0  0  0  0  0  0  0  0  0  0  0
  3  4  1  0
  4  8  1  0
  8  9  1  0
  9 10  1  0
 10 11  1  0
 10 12  1  0
  8 13  1  0
 12 14  1  0
 14 15  2  0
 14 16  1  0
 13 17  1  0
 13 18  1  0
 11 19  1  0
 13 25  1  0
  4 26  1  0
  2 27  1  0
 27 28  2  0
 27 29  1  0
 12 30  1  0
 16 31  1  0
 31 32  1  0
 32 33  1  0
 33 34  1  0
 33 35  1  0
 19 20  2  0
 20 23  1  0
 23 24  2  0
 24 22  1  0
 22 21  2  0
 21 19  1  0
  1  2  2  0
  2  5  1  0
  5  6  2  0
  6  7  1  0
  7  3  2  0
  3  1  1  0
M  END

$$$$
