No_2022-gen_results/8p0m/2024-11-27-11-27-31/
     RDKit          3D

 12 12  0  0  0  0  0  0  0  0999 V2000
  -28.0727   -1.2542   28.5316 F   0  0  0  0  0  0  0  0  0  0  0  0
  -27.3591   -0.3792   28.7224 C   0  0  0  0  0  0  0  0  0  0  0  0
  -27.7576    0.4972   29.4008 F   0  0  0  0  0  0  0  0  0  0  0  0
  -26.0120   -0.9158   29.2854 C   0  0  0  0  0  0  0  0  0  0  0  0
  -27.1211    0.2972   27.5345 F   0  0  0  0  0  0  0  0  0  0  0  0
  -24.9946   -0.1295   29.2124 N   0  0  0  0  0  0  0  0  0  0  0  0
  -23.7154   -0.3849   29.5713 C   0  0  0  0  0  0  0  0  0  0  0  0
  -22.6956    0.6543   29.2473 C   0  0  0  0  0  0  0  0  0  0  0  0
  -23.3452    1.6380   28.4024 C   0  0  0  0  0  0  0  0  0  0  0  0
  -24.9450    1.0764   28.3725 C   0  0  0  0  0  0  0  0  0  0  0  0
  -25.8741   -2.0526   29.7627 O   0  0  0  0  0  0  0  0  0  0  0  0
  -23.3484    2.8630   28.9477 O   0  0  0  0  0  0  0  0  0  0  0  0
  1  2  1  0
  2  3  1  0
  2  4  1  0
  2  5  1  0
  4  6  1  0
  6  7  1  0
  7  8  2  0
  8  9  1  0
  6 10  1  0
  9 10  2  0
  4 11  2  0
  9 12  1  0
M  END

$$$$
