No_2695-gen_results/8p0m/2024-11-27-11-27-31/
     RDKit          3D

 10 10  0  0  0  0  0  0  0  0999 V2000
  -28.0162   -0.8135   28.8779 C   0  0  0  0  0  0  0  0  0  0  0  0
  -27.0636   -0.1190   28.6079 C   0  0  0  0  0  0  0  0  0  0  0  0
  -25.7647   -0.3897   29.0360 C   0  0  0  0  0  0  0  0  0  0  0  0
  -25.5296   -1.5302   29.9014 C   0  0  0  0  0  0  0  0  0  0  0  0
  -26.6577   -2.2915   30.2035 C   0  0  0  0  0  0  0  0  0  0  0  0
  -27.8548   -1.9555   29.7630 C   0  0  0  0  0  0  0  0  0  0  0  0
  -24.3720    0.5554   28.6942 Cl  0  0  0  0  0  0  0  0  0  0  0  0
  -29.0022   -2.8347   30.1870 C   0  0  0  0  0  0  0  0  0  0  0  0
  -30.0632   -2.4765   30.0820 O   0  0  0  0  0  0  0  0  0  0  0  0
  -28.6975   -4.0222   30.6880 O   0  0  0  0  0  0  0  0  0  0  0  0
  3  7  1  0
  6  8  1  0
  8  9  2  0
  8 10  1  0
  1  2  2  0
  2  3  1  0
  3  4  2  0
  4  5  1  0
  5  6  2  0
  6  1  1  0
M  END

$$$$
