No_2627-gen_results/8p0m/2024-11-27-11-27-31/
     RDKit          3D

 25 26  0  0  0  0  0  0  0  0999 V2000
  -28.0162   -0.8135   28.8779 C   0  0  0  0  0  0  0  0  0  0  0  0
  -27.0636   -0.1189   28.6079 C   0  0  0  0  0  0  0  0  0  0  0  0
  -26.9716    0.7139   27.5060 C   0  0  0  0  0  0  0  0  0  0  0  0
  -25.8205    1.4909   27.1160 C   0  0  0  0  0  0  0  0  0  0  0  0
  -24.6562    1.4242   27.9180 C   0  0  0  0  0  0  0  0  0  0  0  0
  -24.6847    0.5901   29.0659 C   0  0  0  0  0  0  0  0  0  0  0  0
  -25.8099   -0.1265   29.3338 C   0  0  0  0  0  0  0  0  0  0  0  0
  -28.7093   -0.4588   30.1754 C   0  0  0  0  0  0  0  0  0  0  0  0
  -29.6183   -1.3904   30.7163 C   0  0  0  0  0  0  0  0  0  0  0  0
  -23.4679    2.2040   27.5990 C   0  0  0  0  0  0  0  0  0  0  0  0
  -22.5568    2.2154   28.4735 O   0  0  0  0  0  0  0  0  0  0  0  0
  -23.2791    2.6069   26.3831 O   0  0  0  0  0  0  0  0  0  0  0  0
  -29.3780    0.8938   30.1463 C   0  0  0  0  0  0  0  0  0  0  0  0
  -27.6969   -0.3097   31.2587 O   0  0  0  0  0  0  0  0  0  0  0  0
  -30.5179   -1.8750   29.9907 O   0  0  0  0  0  0  0  0  0  0  0  0
  -30.4741    1.0380   29.5045 C   0  0  0  0  0  0  0  0  0  0  0  0
  -30.8874    1.9286   29.0788 C   0  0  0  0  0  0  0  0  0  0  0  0
  -32.1633    2.0802   28.2915 C   0  0  0  0  0  0  0  0  0  0  0  0
  -32.8729    0.8921   28.1480 C   0  0  0  0  0  0  0  0  0  0  0  0
  -32.3640   -0.2532   28.6029 C   0  0  0  0  0  0  0  0  0  0  0  0
  -31.2038   -0.2535   29.2757 C   0  0  0  0  0  0  0  0  0  0  0  0
  -30.6693   -0.8776   28.6214 C   0  0  0  0  0  0  0  0  0  0  0  0
  -31.5764   -1.7996   27.3427 Cl  0  0  0  0  0  0  0  0  0  0  0  0
  -29.6537   -0.6833   28.0571 F   0  0  0  0  0  0  0  0  0  0  0  0
  -27.8122   -2.1261   28.9370 O   0  0  0  0  0  0  0  0  0  0  0  0
  1  2  2  3
  2  3  1  0
  3  4  1  0
  4  5  1  0
  5  6  1  0
  2  7  1  0
  6  7  1  0
  1  8  1  0
  8  9  1  0
  5 10  1  0
 10 11  2  0
 10 12  1  0
  8 13  1  0
  8 14  1  0
  9 15  2  0
 13 16  1  0
 21 22  1  0
 22 23  1  0
 22 24  1  0
  1 25  1  0
 16 17  2  0
 17 18  1  0
 18 19  2  0
 19 20  1  0
 20 21  2  0
 21 16  1  0
M  END

$$$$
