No_2097-gen_results/8p0m/2024-11-27-11-27-31/
     RDKit          3D

 15 16  0  0  0  0  0  0  0  0999 V2000
  -28.0162   -0.8135   28.8779 C   0  0  0  0  0  0  0  0  0  0  0  0
  -28.4690   -0.7850   29.8287 C   0  0  0  0  0  0  0  0  0  0  0  0
  -26.5455   -0.8762   28.8500 C   0  0  0  0  0  0  0  0  0  0  0  0
  -25.8041   -1.0324   30.0571 C   0  0  0  0  0  0  0  0  0  0  0  0
  -27.9437   -0.9869   31.2075 C   0  0  0  0  0  0  0  0  0  0  0  0
  -26.5825   -1.0386   31.2231 C   0  0  0  0  0  0  0  0  0  0  0  0
  -30.0638   -0.7948   30.0639 C   0  0  0  0  0  0  0  0  0  0  0  0
  -30.7138   -1.7064   30.2200 O   0  0  0  0  0  0  0  0  0  0  0  0
  -30.5582    0.5117   30.2064 N   0  0  0  0  0  0  0  0  0  0  0  0
  -31.9664    0.6687   30.2745 C   0  0  0  0  0  0  0  0  0  0  0  0
  -32.7755    0.1487   30.7692 C   0  0  0  0  0  0  0  0  0  0  0  0
  -34.1745    0.4630   30.8425 C   0  0  0  0  0  0  0  0  0  0  0  0
  -34.5052    1.6889   30.2013 C   0  0  0  0  0  0  0  0  0  0  0  0
  -33.5291    2.4019   29.5594 C   0  0  0  0  0  0  0  0  0  0  0  0
  -32.1798    2.0388   29.5920 C   0  0  0  0  0  0  0  0  0  0  0  0
  2  7  1  0
  7  8  2  0
  7  9  1  0
  9 10  1  0
  1  2  2  0
  2  5  1  0
  5  6  2  0
  6  4  1  0
  4  3  2  0
  3  1  1  0
 10 11  2  0
 11 12  1  0
 12 13  2  0
 13 14  1  0
 14 15  2  0
 15 10  1  0
M  END

$$$$
