No_2071-gen_results/8p0m/2024-11-27-11-27-31/
     RDKit          3D

 16 17  0  0  0  0  0  0  0  0999 V2000
  -28.0162   -0.8135   28.8779 C   0  0  0  0  0  0  0  0  0  0  0  0
  -28.4690   -0.7850   29.8287 C   0  0  0  0  0  0  0  0  0  0  0  0
  -27.0871    0.2903   28.6377 C   0  0  0  0  0  0  0  0  0  0  0  0
  -26.9102    0.8486   27.4199 C   0  0  0  0  0  0  0  0  0  0  0  0
  -27.8863   -0.5049   31.0944 C   0  0  0  0  0  0  0  0  0  0  0  0
  -26.9294    0.5930   31.0741 C   0  0  0  0  0  0  0  0  0  0  0  0
  -26.5225    0.9550   29.8008 C   0  0  0  0  0  0  0  0  0  0  0  0
  -27.6922    1.1530   26.5994 C   0  0  0  0  0  0  0  0  0  0  0  0
  -29.0563    1.0772   26.8859 C   0  0  0  0  0  0  0  0  0  0  0  0
  -30.0022    1.4088   25.8021 C   0  0  0  0  0  0  0  0  0  0  0  0
  -25.3416    0.8793   27.0683 C   0  0  0  0  0  0  0  0  0  0  0  0
  -24.3881    0.4431   27.9193 C   0  0  0  0  0  0  0  0  0  0  0  0
  -23.1049    0.9305   28.1191 C   0  0  0  0  0  0  0  0  0  0  0  0
  -22.6415    1.8999   27.1396 C   0  0  0  0  0  0  0  0  0  0  0  0
  -23.5529    2.2607   26.1417 C   0  0  0  0  0  0  0  0  0  0  0  0
  -24.9286    1.9100   26.1321 C   0  0  0  0  0  0  0  0  0  0  0  0
  3  4  1  0
  4  8  1  0
  8  9  2  3
  9 10  1  0
  4 11  1  0
 11 12  2  0
 12 13  1  0
 13 14  2  0
 14 15  1  0
 15 16  2  0
 16 11  1  0
  1  2  2  0
  2  5  1  0
  5  6  2  0
  6  7  1  0
  7  3  2  0
  3  1  1  0
M  END

$$$$
