No_2734-gen_results/8p0m/2024-11-27-11-27-31/
     RDKit          3D

 21 24  0  0  0  0  0  0  0  0999 V2000
  -28.0162   -0.8135   28.8779 C   0  0  0  0  0  0  0  0  0  0  0  0
  -28.4690   -0.7850   29.8287 C   0  0  0  0  0  0  0  0  0  0  0  0
  -26.5042   -0.7777   28.8766 C   0  0  0  0  0  0  0  0  0  0  0  0
  -25.8103   -0.8531   30.1028 C   0  0  0  0  0  0  0  0  0  0  0  0
  -27.9906   -0.8916   31.2257 C   0  0  0  0  0  0  0  0  0  0  0  0
  -26.6042   -0.8676   31.2652 C   0  0  0  0  0  0  0  0  0  0  0  0
  -29.9765   -0.8288   29.8497 N   0  0  0  0  0  0  0  0  0  0  0  0
  -30.7392   -1.6442   30.3465 C   0  0  0  0  0  0  0  0  0  0  0  0
  -32.1192   -1.5829   30.0929 C   0  0  0  0  0  0  0  0  0  0  0  0
  -30.6973    0.3077   29.4474 C   0  0  0  0  0  0  0  0  0  0  0  0
  -29.8603    1.4050   28.8228 C   0  0  0  0  0  0  0  0  0  0  0  0
  -32.0155    0.1331   29.3708 C   0  0  0  0  0  0  0  0  0  0  0  0
  -29.8440    1.6205   27.6001 C   0  0  0  0  0  0  0  0  0  0  0  0
  -29.1755    2.7669   27.0455 C   0  0  0  0  0  0  0  0  0  0  0  0
  -29.2774    2.3690   29.7284 C   0  0  0  0  0  0  0  0  0  0  0  0
  -28.6685    3.5061   29.3009 C   0  0  0  0  0  0  0  0  0  0  0  0
  -28.6021    3.7046   27.9078 C   0  0  0  0  0  0  0  0  0  0  0  0
  -25.6826   -0.6866   27.6452 C   0  0  0  0  0  0  0  0  0  0  0  0
  -24.4028   -0.2091   27.7775 C   0  0  0  0  0  0  0  0  0  0  0  0
  -23.6995   -0.4274   29.0295 C   0  0  0  0  0  0  0  0  0  0  0  0
  -24.4156   -0.6005   30.1836 C   0  0  0  0  0  0  0  0  0  0  0  0
  2  7  1  0
  7  8  1  0
  8  9  2  0
  7 10  1  0
 10 11  1  0
  9 12  1  0
 10 12  1  0
  4 21  2  0
 21 20  1  0
 20 19  2  0
 19 18  1  0
 18  3  2  0
 11 13  2  0
 13 14  1  0
 14 17  2  0
 17 16  1  0
 16 15  2  0
 15 11  1  0
  1  2  2  0
  2  5  1  0
  5  6  2  0
  6  4  1  0
  4  3  1  0
  3  1  1  0
M  END

$$$$
