No_2596-gen_results/8p0m/2024-11-27-11-27-31/
     RDKit          3D

 17 18  0  0  0  0  0  0  0  0999 V2000
  -28.1229   -1.3353   28.4874 O   0  0  0  0  0  0  0  0  0  0  0  0
  -27.4806   -0.4044   28.7094 C   0  0  0  0  0  0  0  0  0  0  0  0
  -26.3804   -0.0867   27.9394 C   0  0  0  0  0  0  0  0  0  0  0  0
  -27.7306    0.3455   29.8481 F   0  0  0  0  0  0  0  0  0  0  0  0
  -25.1283   -0.3314   28.3752 C   0  0  0  0  0  0  0  0  0  0  0  0
  -23.9073    0.3013   27.7332 C   0  0  0  0  0  0  0  0  0  0  0  0
  -22.5908    0.2079   28.3600 C   0  0  0  0  0  0  0  0  0  0  0  0
  -22.4347   -0.8271   29.3031 C   0  0  0  0  0  0  0  0  0  0  0  0
  -23.5146   -1.5854   29.7320 C   0  0  0  0  0  0  0  0  0  0  0  0
  -24.8074   -1.3419   29.2937 C   0  0  0  0  0  0  0  0  0  0  0  0
  -26.6180    0.5320   26.6403 C   0  0  0  0  0  0  0  0  0  0  0  0
  -21.5867    0.9245   27.9622 F   0  0  0  0  0  0  0  0  0  0  0  0
  -26.5586   -0.1851   25.4740 C   0  0  0  0  0  0  0  0  0  0  0  0
  -26.9114    0.5279   24.2826 C   0  0  0  0  0  0  0  0  0  0  0  0
  -26.8344    1.8933   26.6449 C   0  0  0  0  0  0  0  0  0  0  0  0
  -27.2176    2.5666   25.4956 C   0  0  0  0  0  0  0  0  0  0  0  0
  -27.2365    1.8350   24.2666 C   0  0  0  0  0  0  0  0  0  0  0  0
  1  2  2  0
  2  3  1  0
  2  4  1  0
  3 11  1  0
  7 12  1  0
  3  5  1  0
 11 13  2  0
 13 14  1  0
 14 17  2  0
 17 16  1  0
 16 15  2  0
 15 11  1  0
  5  6  2  0
  6  7  1  0
  7  8  2  0
  8  9  1  0
  9 10  2  0
 10  5  1  0
M  END

$$$$
