No_2195-gen_results/8p0m/2024-11-27-11-27-31/
     RDKit          3D

 28 30  0  0  0  0  0  0  0  0999 V2000
  -28.0162   -0.8135   28.8779 C   0  0  0  0  0  0  0  0  0  0  0  0
  -28.4690   -0.7850   29.8287 C   0  0  0  0  0  0  0  0  0  0  0  0
  -28.1816    0.4277   28.1134 C   0  0  0  0  0  0  0  0  0  0  0  0
  -27.4498    0.6435   26.8500 C   0  0  0  0  0  0  0  0  0  0  0  0
  -27.8596    1.4573   25.9076 C   0  0  0  0  0  0  0  0  0  0  0  0
  -29.4263    0.1097   30.4178 C   0  0  0  0  0  0  0  0  0  0  0  0
  -29.6233    1.2198   29.7351 C   0  0  0  0  0  0  0  0  0  0  0  0
  -28.9609    1.4529   28.5513 C   0  0  0  0  0  0  0  0  0  0  0  0
  -28.7886    2.5164   26.2663 C   0  0  0  0  0  0  0  0  0  0  0  0
  -29.2995    2.4792   27.5997 C   0  0  0  0  0  0  0  0  0  0  0  0
  -26.2919   -0.5235   26.2997 Cl  0  0  0  0  0  0  0  0  0  0  0  0
  -30.8577    2.5358   30.3727 Br  0  0  0  0  0  0  0  0  0  0  0  0
  -28.2355   -2.1264   30.8177 C   0  0  0  0  0  0  0  0  0  0  0  0
  -28.5101   -3.1376   30.3034 O   0  0  0  0  0  0  0  0  0  0  0  0
  -27.6854   -2.0118   31.9530 O   0  0  0  0  0  0  0  0  0  0  0  0
  -28.9540   -4.2119   30.9328 C   0  0  0  0  0  0  0  0  0  0  0  0
  -30.0622   -4.8987   30.2607 C   0  0  0  0  0  0  0  0  0  0  0  0
  -30.7477   -5.7967   31.0648 C   0  0  0  0  0  0  0  0  0  0  0  0
  -31.8999   -6.4580   30.5075 C   0  0  0  0  0  0  0  0  0  0  0  0
  -32.1671   -6.3029   29.1080 C   0  0  0  0  0  0  0  0  0  0  0  0
  -31.3428   -5.4628   28.3151 C   0  0  0  0  0  0  0  0  0  0  0  0
  -30.2478   -4.8315   28.9233 C   0  0  0  0  0  0  0  0  0  0  0  0
  -31.6247   -5.3515   27.0203 O   0  0  0  0  0  0  0  0  0  0  0  0
  -32.5317   -6.0120   26.4484 C   0  0  0  0  0  0  0  0  0  0  0  0
  -33.4161   -5.2687   25.7301 C   0  0  0  0  0  0  0  0  0  0  0  0
  -34.1769   -4.6420   26.5111 O   0  0  0  0  0  0  0  0  0  0  0  0
  -34.0893   -3.2501   26.5211 C   0  0  0  0  0  0  0  0  0  0  0  0
  -32.9677   -6.8160   27.2435 F   0  0  0  0  0  0  0  0  0  0  0  0
  4 11  1  0
  7 12  1  0
  2 13  1  0
 13 14  1  0
 13 15  2  0
 14 16  1  0
 16 17  1  0
 21 23  1  0
 23 24  1  0
 24 25  1  0
 25 26  1  0
 26 27  1  0
 24 28  1  0
 17 18  2  0
 18 19  1  0
 19 20  2  0
 20 21  1  0
 21 22  2  0
 22 17  1  0
  3  4  2  0
  4  5  1  0
  5  9  2  0
  9 10  1  0
 10  8  2  0
  1  2  2  0
  2  6  1  0
  6  7  2  0
  7  8  1  0
  8  3  1  0
  3  1  1  0
M  END

$$$$
