No_2574-gen_results/8p0m/2024-11-27-11-27-31/
     RDKit          3D

 33 36  0  0  0  0  0  0  0  0999 V2000
  -28.0162   -0.8135   28.8779 C   0  0  0  0  0  0  0  0  0  0  0  0
  -27.0636   -0.1189   28.6079 C   0  0  0  0  0  0  0  0  0  0  0  0
  -26.8756    1.1325   28.9134 C   0  0  0  0  0  0  0  0  0  0  0  0
  -25.6883    1.9515   28.5672 C   0  0  0  0  0  0  0  0  0  0  0  0
  -24.6394    1.2834   27.8753 C   0  0  0  0  0  0  0  0  0  0  0  0
  -24.8181   -0.0802   27.6166 C   0  0  0  0  0  0  0  0  0  0  0  0
  -25.9311   -0.7717   27.9696 C   0  0  0  0  0  0  0  0  0  0  0  0
  -28.6501   -0.5385   30.2330 C   0  0  0  0  0  0  0  0  0  0  0  0
  -29.7142   -1.2183   30.6194 C   0  0  0  0  0  0  0  0  0  0  0  0
  -23.3518    1.7520   27.6310 C   0  0  0  0  0  0  0  0  0  0  0  0
  -23.0189    2.6067   26.8512 N   0  0  0  0  0  0  0  0  0  0  0  0
  -22.1961    1.2705   28.4570 C   0  0  0  0  0  0  0  0  0  0  0  0
  -22.3752    0.4078   29.4375 N   0  0  0  0  0  0  0  0  0  0  0  0
  -30.4082   -1.2513   31.4234 C   0  0  0  0  0  0  0  0  0  0  0  0
  -30.1730   -0.2130   32.5079 C   0  0  0  0  0  0  0  0  0  0  0  0
  -29.0668    0.5901   32.3017 C   0  0  0  0  0  0  0  0  0  0  0  0
  -28.2936    0.4564   31.1523 C   0  0  0  0  0  0  0  0  0  0  0  0
  -20.9344    1.6457   28.1142 N   0  0  0  0  0  0  0  0  0  0  0  0
  -24.1254    3.0793   26.0900 C   0  0  0  0  0  0  0  0  0  0  0  0
  -25.5272    3.3353   28.9141 C   0  0  0  0  0  0  0  0  0  0  0  0
  -26.3355    4.1210   28.2787 N   0  0  0  0  0  0  0  0  0  0  0  0
  -27.3598    4.0792   27.8017 C   0  0  0  0  0  0  0  0  0  0  0  0
  -27.9703    5.0932   27.0634 C   0  0  0  0  0  0  0  0  0  0  0  0
  -25.9892    5.5967   28.4578 C   0  0  0  0  0  0  0  0  0  0  0  0
  -26.3545    6.5875   27.6905 C   0  0  0  0  0  0  0  0  0  0  0  0
  -27.5558    6.3696   27.0526 C   0  0  0  0  0  0  0  0  0  0  0  0
  -24.8430    3.5755   29.9389 O   0  0  0  0  0  0  0  0  0  0  0  0
  -22.2926   -0.8739   29.7597 C   0  0  0  0  0  0  0  0  0  0  0  0
  -23.0209   -1.3648   30.8599 C   0  0  0  0  0  0  0  0  0  0  0  0
  -24.2013   -0.5799   31.1253 C   0  0  0  0  0  0  0  0  0  0  0  0
  -23.8020    0.7997   30.8893 C   0  0  0  0  0  0  0  0  0  0  0  0
  -23.2199    1.3759   30.3634 C   0  0  0  0  0  0  0  0  0  0  0  0
  -24.8820   -1.0562   32.3992 C   0  0  0  0  0  0  0  0  0  0  0  0
  1  8  1  0
  5 10  1  0
 10 11  2  3
 10 12  1  0
 12 13  1  0
 12 18  1  0
 11 19  1  0
  4 20  1  0
 20 21  1  0
 21 22  1  0
 21 24  1  0
 23 26  1  0
 25 26  1  0
 20 27  2  0
 13 28  1  0
 29 30  1  0
 30 31  1  0
 13 32  1  0
 30 33  1  0
  1  2  1  0
 28 29  1  0
 31 32  1  0
 22 23  1  0
 25 24  1  0
  2  3  2  0
  3  4  1  0
  4  5  2  0
  5  6  1  0
  6  7  2  0
  7  2  1  0
  8  9  2  0
  9 14  1  0
 14 15  2  0
 15 16  1  0
 16 17  2  0
 17  8  1  0
M  END

$$$$
