No_2465-gen_results/8p0m/2024-11-27-11-27-31/
     RDKit          3D

 27 30  0  0  0  0  0  0  0  0999 V2000
  -28.0162   -0.8135   28.8779 C   0  0  0  0  0  0  0  0  0  0  0  0
  -27.0636   -0.1190   28.6079 C   0  0  0  0  0  0  0  0  0  0  0  0
  -25.7647   -0.3897   29.0360 C   0  0  0  0  0  0  0  0  0  0  0  0
  -25.5296   -1.5303   29.9014 C   0  0  0  0  0  0  0  0  0  0  0  0
  -26.6577   -2.2915   30.2035 C   0  0  0  0  0  0  0  0  0  0  0  0
  -27.8548   -1.9555   29.7630 C   0  0  0  0  0  0  0  0  0  0  0  0
  -24.5441    0.4126   28.7379 C   0  0  0  0  0  0  0  0  0  0  0  0
  -24.4731    1.2064   27.7114 C   0  0  0  0  0  0  0  0  0  0  0  0
  -25.5225    1.5146   26.8271 C   0  0  0  0  0  0  0  0  0  0  0  0
  -23.1407    1.8483   27.3980 C   0  0  0  0  0  0  0  0  0  0  0  0
  -22.1032    1.7194   28.3183 C   0  0  0  0  0  0  0  0  0  0  0  0
  -23.3748    0.1881   29.5505 C   0  0  0  0  0  0  0  0  0  0  0  0
  -22.1585    0.8893   29.3102 C   0  0  0  0  0  0  0  0  0  0  0  0
  -26.3228    2.4292   27.2374 C   0  0  0  0  0  0  0  0  0  0  0  0
  -25.7260    0.7689   25.6612 C   0  0  0  0  0  0  0  0  0  0  0  0
  -26.8254    0.9094   24.8578 C   0  0  0  0  0  0  0  0  0  0  0  0
  -27.4403    2.8454   26.3259 C   0  0  0  0  0  0  0  0  0  0  0  0
  -27.6299    2.0829   25.1914 C   0  0  0  0  0  0  0  0  0  0  0  0
  -29.3401   -2.7416   30.1074 Cl  0  0  0  0  0  0  0  0  0  0  0  0
  -28.7919    2.3358   24.3088 C   0  0  0  0  0  0  0  0  0  0  0  0
  -30.0350    2.0472   24.7494 C   0  0  0  0  0  0  0  0  0  0  0  0
  -31.1410    2.2184   24.0019 C   0  0  0  0  0  0  0  0  0  0  0  0
  -30.9334    2.7735   22.6577 C   0  0  0  0  0  0  0  0  0  0  0  0
  -32.1179    2.9516   21.8845 C   0  0  0  0  0  0  0  0  0  0  0  0
  -33.3751    2.6859   22.3488 C   0  0  0  0  0  0  0  0  0  0  0  0
  -33.5758    2.2111   23.6224 C   0  0  0  0  0  0  0  0  0  0  0  0
  -32.4830    2.0313   24.4034 C   0  0  0  0  0  0  0  0  0  0  0  0
  3  7  1  0
  8  9  1  0
  6 19  1  0
 18 20  1  0
 20 21  1  0
 21 22  1  0
  1  2  2  0
  2  3  1  0
  3  4  2  0
  4  5  1  0
  5  6  2  0
  6  1  1  0
  9 14  2  0
 14 17  1  0
 17 18  2  0
 18 16  1  0
 16 15  2  0
 15  9  1  0
 22 23  2  0
 23 24  1  0
 24 25  2  0
 25 26  1  0
 26 27  2  0
 27 22  1  0
  7  8  1  0
  8 10  2  0
 10 11  1  0
 11 13  2  0
 13 12  1  0
 12  7  2  0
M  END

$$$$
