No_294-gen_results/8p0m/2024-11-27-11-27-31/
     RDKit          3D

 35 37  0  0  0  0  0  0  0  0999 V2000
  -28.0162   -0.8135   28.8779 C   0  0  0  0  0  0  0  0  0  0  0  0
  -27.0636   -0.1189   28.6079 C   0  0  0  0  0  0  0  0  0  0  0  0
  -26.9287    1.1713   29.0083 C   0  0  0  0  0  0  0  0  0  0  0  0
  -25.7702    2.0341   28.6884 C   0  0  0  0  0  0  0  0  0  0  0  0
  -24.7141    1.4431   27.9188 C   0  0  0  0  0  0  0  0  0  0  0  0
  -23.5566    2.1673   27.5933 C   0  0  0  0  0  0  0  0  0  0  0  0
  -29.0912   -0.2748   29.7317 C   0  0  0  0  0  0  0  0  0  0  0  0
  -29.0503    0.9872   30.1426 C   0  0  0  0  0  0  0  0  0  0  0  0
  -27.9501    1.7660   29.8118 C   0  0  0  0  0  0  0  0  0  0  0  0
  -25.6210    3.3874   28.9730 C   0  0  0  0  0  0  0  0  0  0  0  0
  -24.5895    4.2089   28.4034 C   0  0  0  0  0  0  0  0  0  0  0  0
  -23.5223    3.5277   27.7603 C   0  0  0  0  0  0  0  0  0  0  0  0
  -30.1991   -1.2148   30.0576 C   0  0  0  0  0  0  0  0  0  0  0  0
  -30.0017   -2.3606   30.3569 O   0  0  0  0  0  0  0  0  0  0  0  0
  -31.3844   -0.7527   30.1743 O   0  0  0  0  0  0  0  0  0  0  0  0
  -22.5320    1.4655   27.0666 O   0  0  0  0  0  0  0  0  0  0  0  0
  -21.4483    1.3475   28.0511 C   0  0  0  0  0  0  0  0  0  0  0  0
  -32.4111   -1.3310   30.0362 C   0  0  0  0  0  0  0  0  0  0  0  0
  -33.1507   -1.7279   31.0414 C   0  0  0  0  0  0  0  0  0  0  0  0
  -34.1802   -2.5343   30.7071 F   0  0  0  0  0  0  0  0  0  0  0  0
  -32.4047   -2.4810   31.9352 F   0  0  0  0  0  0  0  0  0  0  0  0
  -33.6333   -0.7350   31.8266 F   0  0  0  0  0  0  0  0  0  0  0  0
  -32.0993   -2.3321   29.1118 F   0  0  0  0  0  0  0  0  0  0  0  0
  -33.1601   -0.4541   29.1478 F   0  0  0  0  0  0  0  0  0  0  0  0
  -26.6387    4.0514   29.5574 O   0  0  0  0  0  0  0  0  0  0  0  0
  -27.0780    5.1323   29.6012 C   0  0  0  0  0  0  0  0  0  0  0  0
  -28.3762    5.3341   30.0620 C   0  0  0  0  0  0  0  0  0  0  0  0
  -28.9043    6.5684   29.9065 C   0  0  0  0  0  0  0  0  0  0  0  0
  -26.3806    6.3093   29.2293 C   0  0  0  0  0  0  0  0  0  0  0  0
  -26.8604    7.5615   29.1113 C   0  0  0  0  0  0  0  0  0  0  0  0
  -28.1886    7.7212   29.5382 C   0  0  0  0  0  0  0  0  0  0  0  0
  -28.9031    9.2654   29.5053 Cl  0  0  0  0  0  0  0  0  0  0  0  0
  -30.5917    6.8146   30.4471 Cl  0  0  0  0  0  0  0  0  0  0  0  0
  -26.0838    8.6093   28.7701 O   0  0  0  0  0  0  0  0  0  0  0  0
  -24.9991    8.5384   27.9867 C   0  0  0  0  0  0  0  0  0  0  0  0
  3  4  1  0
  7 13  1  0
 13 14  2  0
 13 15  1  0
  6 16  1  0
 16 17  1  0
 15 18  1  0
 18 19  1  0
 19 20  1  0
 19 21  1  0
 19 22  1  0
 18 23  1  0
 18 24  1  0
 10 25  1  0
 25 26  1  0
 31 32  1  0
 28 33  1  0
 30 34  1  0
 34 35  1  0
  4  5  2  0
  5  6  1  0
  6 12  2  0
 12 11  1  0
 11 10  2  0
 10  4  1  0
 26 27  2  0
 27 28  1  0
 28 31  2  0
 31 30  1  0
 30 29  2  0
 29 26  1  0
  1  2  2  0
  2  3  1  0
  3  9  2  0
  9  8  1  0
  8  7  2  0
  7  1  1  0
M  END

$$$$
