No_2315-gen_results/8p0m/2024-11-27-11-27-31/
     RDKit          3D

 22 24  0  0  0  0  0  0  0  0999 V2000
  -28.0162   -0.8135   28.8779 C   0  0  0  0  0  0  0  0  0  0  0  0
  -27.0636   -0.1190   28.6079 C   0  0  0  0  0  0  0  0  0  0  0  0
  -26.9716    0.7139   27.5060 C   0  0  0  0  0  0  0  0  0  0  0  0
  -28.1053    0.7744   26.6421 C   0  0  0  0  0  0  0  0  0  0  0  0
  -29.2041    0.1179   27.0477 C   0  0  0  0  0  0  0  0  0  0  0  0
  -30.3488    0.2568   26.2203 C   0  0  0  0  0  0  0  0  0  0  0  0
  -29.1817   -0.6758   28.1173 C   0  0  0  0  0  0  0  0  0  0  0  0
  -30.3285   -0.0553   25.0162 O   0  0  0  0  0  0  0  0  0  0  0  0
  -31.5408    0.4943   26.7257 O   0  0  0  0  0  0  0  0  0  0  0  0
  -25.6689    1.4187   27.1340 C   0  0  0  0  0  0  0  0  0  0  0  0
  -24.5290    1.0495   27.7204 C   0  0  0  0  0  0  0  0  0  0  0  0
  -23.3099    1.8141   27.3784 C   0  0  0  0  0  0  0  0  0  0  0  0
  -23.5090    2.6143   26.2968 N   0  0  0  0  0  0  0  0  0  0  0  0
  -25.3573    2.4172   26.1414 C   0  0  0  0  0  0  0  0  0  0  0  0
  -22.0707    1.6504   27.7541 N   0  0  0  0  0  0  0  0  0  0  0  0
  -21.7967    0.7197   28.7540 C   0  0  0  0  0  0  0  0  0  0  0  0
  -22.7989   -0.1421   29.2098 C   0  0  0  0  0  0  0  0  0  0  0  0
  -24.1626    0.0426   28.7686 C   0  0  0  0  0  0  0  0  0  0  0  0
  -28.3180   -1.6314   30.0694 C   0  0  0  0  0  0  0  0  0  0  0  0
  -28.6620   -1.1380   31.1227 O   0  0  0  0  0  0  0  0  0  0  0  0
  -27.9339   -2.8438   29.9937 O   0  0  0  0  0  0  0  0  0  0  0  0
  -22.4994   -1.2895   30.4089 Cl  0  0  0  0  0  0  0  0  0  0  0  0
  5  6  1  0
  6  8  2  0
  6  9  1  0
  3 10  1  0
 10 14  1  0
 13 14  1  0
  1 19  1  0
 19 20  1  0
 19 21  2  0
 17 22  1  0
 10 11  1  0
 13 12  1  0
 11 12  2  0
 12 15  1  0
 15 16  2  0
 16 17  1  0
 17 18  2  0
 18 11  1  0
  1  2  2  0
  2  3  1  0
  3  4  2  0
  4  5  1  0
  5  7  2  0
  7  1  1  0
M  END

$$$$
