No_2540-gen_results/8p0m/2024-11-27-11-27-31/
     RDKit          3D

 17 19  0  0  0  0  0  0  0  0999 V2000
  -28.1229   -1.3353   28.4874 O   0  0  0  0  0  0  0  0  0  0  0  0
  -27.4806   -0.4044   28.7094 C   0  0  0  0  0  0  0  0  0  0  0  0
  -26.3804   -0.0867   27.9394 C   0  0  0  0  0  0  0  0  0  0  0  0
  -27.6664    0.4468   29.8988 N   0  0  0  0  0  0  0  0  0  0  0  0
  -25.8047    1.1658   28.0750 C   0  0  0  0  0  0  0  0  0  0  0  0
  -24.6057    1.5261   27.3759 C   0  0  0  0  0  0  0  0  0  0  0  0
  -23.8608    2.7147   27.6908 C   0  0  0  0  0  0  0  0  0  0  0  0
  -24.4102    3.4542   28.2835 C   0  0  0  0  0  0  0  0  0  0  0  0
  -25.6479    3.4374   28.9309 C   0  0  0  0  0  0  0  0  0  0  0  0
  -26.3249    2.1805   28.8509 C   0  0  0  0  0  0  0  0  0  0  0  0
  -27.2031    1.7569   29.8280 C   0  0  0  0  0  0  0  0  0  0  0  0
  -27.6911    2.6271   30.9347 C   0  0  0  0  0  0  0  0  0  0  0  0
  -27.7187    2.2411   32.0485 C   0  0  0  0  0  0  0  0  0  0  0  0
  -28.0913    3.0905   33.1597 C   0  0  0  0  0  0  0  0  0  0  0  0
  -28.4511    4.4218   32.8806 C   0  0  0  0  0  0  0  0  0  0  0  0
  -28.3421    4.8812   31.6070 C   0  0  0  0  0  0  0  0  0  0  0  0
  -27.8937    4.0303   30.5645 C   0  0  0  0  0  0  0  0  0  0  0  0
  1  2  2  0
  2  3  1  0
  2  4  1  0
  3  5  1  0
  4 11  1  0
 10 11  1  0
 11 12  1  0
 12 13  2  0
 13 14  1  0
 14 15  2  0
 15 16  1  0
 16 17  2  0
 17 12  1  0
  5  6  2  0
  6  7  1  0
  7  8  2  0
  8  9  1  0
  9 10  2  0
 10  5  1  0
M  END

$$$$
