No_217-gen_results/8p0m/2024-11-27-11-27-31/
     RDKit          3D

 35 37  0  0  0  0  0  0  0  0999 V2000
  -28.0162   -0.8135   28.8779 C   0  0  0  0  0  0  0  0  0  0  0  0
  -27.0636   -0.1190   28.6079 C   0  0  0  0  0  0  0  0  0  0  0  0
  -26.8756    1.1325   28.9134 C   0  0  0  0  0  0  0  0  0  0  0  0
  -27.9014    1.8066   29.6436 C   0  0  0  0  0  0  0  0  0  0  0  0
  -29.0458   -0.2316   29.7181 C   0  0  0  0  0  0  0  0  0  0  0  0
  -28.9402    1.0517   30.0597 C   0  0  0  0  0  0  0  0  0  0  0  0
  -30.3749   -1.2853   30.2142 P   0  0  0  0  0  0  0  0  0  0  0  0
  -29.8816   -2.5716   30.3927 O   0  0  0  0  0  0  0  0  0  0  0  0
  -31.5851   -1.0351   29.5274 O   0  0  0  0  0  0  0  0  0  0  0  0
  -30.5345   -0.6869   31.7462 O   0  0  0  0  0  0  0  0  0  0  0  0
  -32.2623   -1.6577   28.8836 Br  0  0  0  0  0  0  0  0  0  0  0  0
  -25.8400   -0.7221   27.7892 C   0  0  0  0  0  0  0  0  0  0  0  0
  -24.6776   -1.1599   28.6621 C   0  0  0  0  0  0  0  0  0  0  0  0
  -24.6841   -2.3441   29.1471 C   0  0  0  0  0  0  0  0  0  0  0  0
  -23.6059   -0.2650   28.7712 C   0  0  0  0  0  0  0  0  0  0  0  0
  -23.4123    1.0404   28.2806 C   0  0  0  0  0  0  0  0  0  0  0  0
  -24.2158    1.9446   28.0174 C   0  0  0  0  0  0  0  0  0  0  0  0
  -23.9068    3.1783   27.3380 C   0  0  0  0  0  0  0  0  0  0  0  0
  -24.9415    4.1554   27.2199 C   0  0  0  0  0  0  0  0  0  0  0  0
  -25.9850    4.1059   27.9918 C   0  0  0  0  0  0  0  0  0  0  0  0
  -26.2864    4.8354   28.6077 C   0  0  0  0  0  0  0  0  0  0  0  0
  -25.9482    6.3228   28.3358 C   0  0  0  0  0  0  0  0  0  0  0  0
  -24.9747    6.5090   27.3356 C   0  0  0  0  0  0  0  0  0  0  0  0
  -24.3551    5.4360   26.8383 C   0  0  0  0  0  0  0  0  0  0  0  0
  -22.7045   -0.7652   29.8280 C   0  0  0  0  0  0  0  0  0  0  0  0
  -22.1206    1.0198   27.4385 C   0  0  0  0  0  0  0  0  0  0  0  0
  -25.6740   -3.1795   29.1782 C   0  0  0  0  0  0  0  0  0  0  0  0
  -25.5657   -4.5973   29.5659 C   0  0  0  0  0  0  0  0  0  0  0  0
  -24.3106   -5.0236   29.2943 N   0  0  0  0  0  0  0  0  0  0  0  0
  -23.3408   -3.0133   29.4036 C   0  0  0  0  0  0  0  0  0  0  0  0
  -23.3528   -4.1067   29.7385 N   0  0  0  0  0  0  0  0  0  0  0  0
  -22.3963   -2.0525   29.7351 N   0  0  0  0  0  0  0  0  0  0  0  0
  -22.7533   -3.1293   27.6364 Cl  0  0  0  0  0  0  0  0  0  0  0  0
  -21.1220   -1.9005   29.1618 C   0  0  0  0  0  0  0  0  0  0  0  0
  -22.6895   -1.9917   31.4081 C   0  0  0  0  0  0  0  0  0  0  0  0
  5  7  1  0
  7  8  2  0
  7  9  1  0
  7 10  1  0
  9 11  1  0
  2 12  1  0
 12 13  1  0
 13 14  1  0
 13 15  1  0
 15 16  1  0
 16 17  2  3
 17 18  1  0
 15 25  1  0
 16 26  1  0
 25 32  1  0
 30 33  1  0
 32 34  1  0
 32 35  1  0
 18 19  1  0
 14 27  2  0
 27 28  1  0
 28 29  2  0
 29 31  1  0
 31 30  2  0
 30 14  1  0
  1  2  2  0
  2  3  1  0
  3  4  2  0
  4  6  1  0
  6  5  2  0
  5  1  1  0
 19 20  2  0
 20 21  1  0
 21 22  2  0
 22 23  1  0
 23 24  2  0
 24 19  1  0
M  END

$$$$
