No_2838-gen_results/8p0m/2024-11-27-11-27-31/
     RDKit          3D

 29 32  0  0  0  0  0  0  0  0999 V2000
  -28.1229   -1.3353   28.4874 O   0  0  0  0  0  0  0  0  0  0  0  0
  -27.4806   -0.4044   28.7094 C   0  0  0  0  0  0  0  0  0  0  0  0
  -26.3804   -0.0867   27.9394 C   0  0  0  0  0  0  0  0  0  0  0  0
  -27.8993    0.6459   29.6320 N   0  0  0  0  0  0  0  0  0  0  0  0
  -26.3190    0.9178   27.1016 C   0  0  0  0  0  0  0  0  0  0  0  0
  -26.9482    2.1914   27.6864 C   0  0  0  0  0  0  0  0  0  0  0  0
  -27.8578    1.9152   28.8272 C   0  0  0  0  0  0  0  0  0  0  0  0
  -25.2567   -1.0588   27.9068 C   0  0  0  0  0  0  0  0  0  0  0  0
  -24.3936   -1.1007   29.1407 C   0  0  0  0  0  0  0  0  0  0  0  0
  -23.5943   -0.1778   29.6066 C   0  0  0  0  0  0  0  0  0  0  0  0
  -23.4497    1.0338   28.7807 C   0  0  0  0  0  0  0  0  0  0  0  0
  -22.5126    1.1525   27.9532 C   0  0  0  0  0  0  0  0  0  0  0  0
  -22.3640    2.4536   27.1830 C   0  0  0  0  0  0  0  0  0  0  0  0
  -23.5330    3.2199   27.2336 C   0  0  0  0  0  0  0  0  0  0  0  0
  -24.3856    2.1796   28.7425 C   0  0  0  0  0  0  0  0  0  0  0  0
  -24.2529    3.2259   28.1039 N   0  0  0  0  0  0  0  0  0  0  0  0
  -24.5988   -2.2528   30.0080 C   0  0  0  0  0  0  0  0  0  0  0  0
  -22.8283   -0.2047   30.7920 C   0  0  0  0  0  0  0  0  0  0  0  0
  -23.0297   -1.3362   31.7200 C   0  0  0  0  0  0  0  0  0  0  0  0
  -23.9113   -2.3303   31.2609 C   0  0  0  0  0  0  0  0  0  0  0  0
  -25.2824    4.3322   28.0945 C   0  0  0  0  0  0  0  0  0  0  0  0
  -27.9732    2.8952   26.6934 C   0  0  0  0  0  0  0  0  0  0  0  0
  -25.5192    4.9417   29.0997 C   0  0  0  0  0  0  0  0  0  0  0  0
  -26.3609    6.1244   29.2055 C   0  0  0  0  0  0  0  0  0  0  0  0
  -26.8757    6.5554   27.9668 C   0  0  0  0  0  0  0  0  0  0  0  0
  -25.6584    5.0133   26.9117 C   0  0  0  0  0  0  0  0  0  0  0  0
  -26.4221    6.0707   26.8341 C   0  0  0  0  0  0  0  0  0  0  0  0
  -25.3646   -3.2278   29.7492 F   0  0  0  0  0  0  0  0  0  0  0  0
  -29.1218    3.4189   27.1779 C   0  0  0  0  0  0  0  0  0  0  0  0
  1  2  2  0
  2  3  1  0
  2  4  1  0
  5  6  1  0
  3  8  1  0
  8  9  1  0
 10 11  1  0
 12 13  1  0
 11 15  1  0
 14 16  1  0
 15 16  1  0
 16 21  1  0
  6 22  1  0
 17 28  1  0
 22 29  2  0
 14 13  1  0
 12 11  1  0
  3  5  1  0
  6  7  1  0
  7  4  1  0
  9 10  2  0
 10 18  1  0
 18 19  2  0
 19 20  1  0
 20 17  2  0
 17  9  1  0
 21 23  2  0
 23 24  1  0
 24 25  2  0
 25 27  1  0
 27 26  2  0
 26 21  1  0
M  END

$$$$
