No_2581-gen_results/8p0m/2024-11-27-11-27-31/
     RDKit          3D

 21 24  0  0  0  0  0  0  0  0999 V2000
  -28.0162   -0.8135   28.8779 C   0  0  0  0  0  0  0  0  0  0  0  0
  -28.4690   -0.7850   29.8287 C   0  0  0  0  0  0  0  0  0  0  0  0
  -26.5455   -0.8762   28.8500 C   0  0  0  0  0  0  0  0  0  0  0  0
  -25.8041   -1.0324   30.0571 C   0  0  0  0  0  0  0  0  0  0  0  0
  -30.0055   -0.7457   29.8978 C   0  0  0  0  0  0  0  0  0  0  0  0
  -26.5747   -1.0565   31.2005 C   0  0  0  0  0  0  0  0  0  0  0  0
  -27.9251   -0.9738   31.1683 C   0  0  0  0  0  0  0  0  0  0  0  0
  -30.6071    0.2417   30.5276 N   0  0  0  0  0  0  0  0  0  0  0  0
  -31.2602    1.0422   30.3013 C   0  0  0  0  0  0  0  0  0  0  0  0
  -31.7351    1.1872   29.0312 N   0  0  0  0  0  0  0  0  0  0  0  0
  -31.7561    2.0506   31.1729 N   0  0  0  0  0  0  0  0  0  0  0  0
  -31.3844    2.1600   32.4719 C   0  0  0  0  0  0  0  0  0  0  0  0
  -30.6098    1.0755   32.8739 C   0  0  0  0  0  0  0  0  0  0  0  0
  -30.1078    0.0711   31.9944 C   0  0  0  0  0  0  0  0  0  0  0  0
  -28.8395   -0.6103   32.2886 C   0  0  0  0  0  0  0  0  0  0  0  0
  -31.6828    0.5416   28.1598 C   0  0  0  0  0  0  0  0  0  0  0  0
  -32.6221   -0.4224   27.6788 C   0  0  0  0  0  0  0  0  0  0  0  0
  -32.3949   -1.3868   26.7655 C   0  0  0  0  0  0  0  0  0  0  0  0
  -31.4118   -1.0827   25.7146 C   0  0  0  0  0  0  0  0  0  0  0  0
  -30.4768   -0.0635   26.0009 C   0  0  0  0  0  0  0  0  0  0  0  0
  -30.5730    0.7259   27.1438 C   0  0  0  0  0  0  0  0  0  0  0  0
  2  5  1  0
  5  8  1  0
  8  9  1  0
  9 10  2  3
  9 11  1  0
 11 12  1  0
 12 13  1  0
  8 14  1  0
 13 14  1  0
  7 15  1  0
 14 15  1  0
 10 16  1  0
 16 17  2  0
 17 18  1  0
 18 19  2  0
 19 20  1  0
 20 21  2  0
 21 16  1  0
  1  2  2  0
  2  7  1  0
  7  6  2  0
  6  4  1  0
  4  3  2  0
  3  1  1  0
M  END

$$$$
