No_2245-gen_results/8p0m/2024-11-27-11-27-31/
     RDKit          3D

 19 20  0  0  0  0  0  0  0  0999 V2000
  -28.0162   -0.8135   28.8779 C   0  0  0  0  0  0  0  0  0  0  0  0
  -27.0636   -0.1189   28.6079 C   0  0  0  0  0  0  0  0  0  0  0  0
  -26.9287    1.1713   29.0083 C   0  0  0  0  0  0  0  0  0  0  0  0
  -25.7702    2.0341   28.6884 C   0  0  0  0  0  0  0  0  0  0  0  0
  -24.7141    1.4431   27.9188 C   0  0  0  0  0  0  0  0  0  0  0  0
  -24.8590    0.0783   27.5836 C   0  0  0  0  0  0  0  0  0  0  0  0
  -25.9647   -0.6606   27.9164 C   0  0  0  0  0  0  0  0  0  0  0  0
  -29.1778   -0.3051   28.9638 N   0  0  0  0  0  0  0  0  0  0  0  0
  -30.1765   -0.9070   29.7369 C   0  0  0  0  0  0  0  0  0  0  0  0
  -23.5156    2.1616   27.5794 C   0  0  0  0  0  0  0  0  0  0  0  0
  -22.6061    1.5521   27.2520 F   0  0  0  0  0  0  0  0  0  0  0  0
  -23.8581    3.0327   26.5122 F   0  0  0  0  0  0  0  0  0  0  0  0
  -23.1618    3.0366   28.5861 F   0  0  0  0  0  0  0  0  0  0  0  0
  -30.2379   -0.9161   30.9667 C   0  0  0  0  0  0  0  0  0  0  0  0
  -31.3488   -1.5052   29.0037 C   0  0  0  0  0  0  0  0  0  0  0  0
  -31.2418   -1.5631   31.7830 C   0  0  0  0  0  0  0  0  0  0  0  0
  -32.3287   -2.1752   29.7160 C   0  0  0  0  0  0  0  0  0  0  0  0
  -32.3144   -2.1466   31.1101 C   0  0  0  0  0  0  0  0  0  0  0  0
  -27.8701   -1.9525   29.4366 O   0  0  0  0  0  0  0  0  0  0  0  0
  1  2  1  0
  1  8  1  0
  8  9  1  0
  5 10  1  0
 10 11  1  0
 10 12  1  0
 10 13  1  0
  1 19  2  0
  2  3  2  0
  3  4  1  0
  4  5  2  0
  5  6  1  0
  6  7  2  0
  7  2  1  0
  9 14  2  0
 14 16  1  0
 16 18  2  0
 18 17  1  0
 17 15  2  0
 15  9  1  0
M  END

$$$$
