No_2725-gen_results/8p0m/2024-11-27-11-27-31/
     RDKit          3D

 12 12  0  0  0  0  0  0  0  0999 V2000
  -28.0162   -0.8135   28.8779 C   0  0  0  0  0  0  0  0  0  0  0  0
  -28.4690   -0.7850   29.8287 C   0  0  0  0  0  0  0  0  0  0  0  0
  -26.5042   -0.7777   28.8766 C   0  0  0  0  0  0  0  0  0  0  0  0
  -25.8305   -1.6808   29.6849 C   0  0  0  0  0  0  0  0  0  0  0  0
  -28.1490   -1.8854   30.9031 C   0  0  0  0  0  0  0  0  0  0  0  0
  -26.6460   -1.9561   31.0330 C   0  0  0  0  0  0  0  0  0  0  0  0
  -28.5823   -3.1584   30.5023 O   0  0  0  0  0  0  0  0  0  0  0  0
  -26.0775   -2.9853   31.4105 O   0  0  0  0  0  0  0  0  0  0  0  0
  -25.7211    0.0957   27.9995 C   0  0  0  0  0  0  0  0  0  0  0  0
  -25.3470    1.3653   28.4601 C   0  0  0  0  0  0  0  0  0  0  0  0
  -24.5173    2.1518   27.6157 C   0  0  0  0  0  0  0  0  0  0  0  0
  -24.2311    1.7400   26.3033 C   0  0  0  0  0  0  0  0  0  0  0  0
  1  2  1  0
  1  3  1  0
  3  4  1  0
  2  5  1  0
  4  6  1  0
  5  6  1  0
  5  7  1  0
  6  8  1  0
  3  9  1  0
  9 10  1  0
 10 11  2  3
 11 12  1  0
M  END

$$$$
