No_2559-gen_results/8p0m/2024-11-27-11-27-31/
     RDKit          3D

 21 23  0  0  0  0  0  0  0  0999 V2000
  -28.0162   -0.8135   28.8779 C   0  0  0  0  0  0  0  0  0  0  0  0
  -28.4690   -0.7850   29.8287 C   0  0  0  0  0  0  0  0  0  0  0  0
  -26.5042   -0.7777   28.8766 C   0  0  0  0  0  0  0  0  0  0  0  0
  -25.8305   -1.6807   29.6849 C   0  0  0  0  0  0  0  0  0  0  0  0
  -28.1490   -1.8854   30.9031 C   0  0  0  0  0  0  0  0  0  0  0  0
  -26.6460   -1.9561   31.0330 C   0  0  0  0  0  0  0  0  0  0  0  0
  -28.8423   -2.6205   31.5877 O   0  0  0  0  0  0  0  0  0  0  0  0
  -25.6851   -0.3320   27.7175 C   0  0  0  0  0  0  0  0  0  0  0  0
  -24.4712    0.2916   28.0298 C   0  0  0  0  0  0  0  0  0  0  0  0
  -24.2917    1.5454   28.1926 C   0  0  0  0  0  0  0  0  0  0  0  0
  -25.2504    2.5459   27.9647 C   0  0  0  0  0  0  0  0  0  0  0  0
  -25.9986    2.7327   28.7850 C   0  0  0  0  0  0  0  0  0  0  0  0
  -26.6132    3.5730   29.1574 C   0  0  0  0  0  0  0  0  0  0  0  0
  -26.7303    4.7558   28.2528 C   0  0  0  0  0  0  0  0  0  0  0  0
  -25.8159    4.7714   27.1838 C   0  0  0  0  0  0  0  0  0  0  0  0
  -24.9164    3.7161   27.1093 C   0  0  0  0  0  0  0  0  0  0  0  0
  -26.1372   -0.2535   26.4061 C   0  0  0  0  0  0  0  0  0  0  0  0
  -22.7822    1.9635   28.3929 C   0  0  0  0  0  0  0  0  0  0  0  0
  -21.8535    0.8964   28.3444 C   0  0  0  0  0  0  0  0  0  0  0  0
  -23.3458   -0.6512   28.1707 C   0  0  0  0  0  0  0  0  0  0  0  0
  -22.1280   -0.3536   28.5718 C   0  0  0  0  0  0  0  0  0  0  0  0
  1  2  1  0
  1  3  1  0
  3  4  1  0
  2  5  1  0
  4  6  1  0
  5  6  1  0
  5  7  2  0
  3  8  1  0
  8  9  1  0
 10 11  1  0
  8 17  1  0
 11 12  2  0
 12 13  1  0
 13 14  2  0
 14 15  1  0
 15 16  2  0
 16 11  1  0
  9 10  1  0
 10 18  2  0
 18 19  1  0
 19 21  2  0
 21 20  1  0
 20  9  2  0
M  END

$$$$
