No_2222-gen_results/8p0m/2024-11-27-11-27-31/
     RDKit          3D

 32 34  0  0  0  0  0  0  0  0999 V2000
  -28.0162   -0.8135   28.8779 C   0  0  0  0  0  0  0  0  0  0  0  0
  -27.0636   -0.1190   28.6079 C   0  0  0  0  0  0  0  0  0  0  0  0
  -26.9287    1.1713   29.0083 C   0  0  0  0  0  0  0  0  0  0  0  0
  -25.7702    2.0341   28.6884 C   0  0  0  0  0  0  0  0  0  0  0  0
  -24.7141    1.4431   27.9188 C   0  0  0  0  0  0  0  0  0  0  0  0
  -24.8590    0.0783   27.5836 C   0  0  0  0  0  0  0  0  0  0  0  0
  -25.9647   -0.6606   27.9164 C   0  0  0  0  0  0  0  0  0  0  0  0
  -29.1701   -0.2984   28.9471 N   0  0  0  0  0  0  0  0  0  0  0  0
  -29.8110    0.1551   29.8586 C   0  0  0  0  0  0  0  0  0  0  0  0
  -29.5832    0.1166   30.9538 C   0  0  0  0  0  0  0  0  0  0  0  0
  -28.6805   -0.7881   31.4567 C   0  0  0  0  0  0  0  0  0  0  0  0
  -27.8437   -1.4995   30.6261 C   0  0  0  0  0  0  0  0  0  0  0  0
  -23.4901    2.1245   27.5663 C   0  0  0  0  0  0  0  0  0  0  0  0
  -23.3531    2.6303   26.5221 F   0  0  0  0  0  0  0  0  0  0  0  0
  -22.3545    1.1677   27.6599 F   0  0  0  0  0  0  0  0  0  0  0  0
  -23.1585    3.0142   28.6091 F   0  0  0  0  0  0  0  0  0  0  0  0
  -29.5461   -0.0224   27.4877 C   0  0  0  0  0  0  0  0  0  0  0  0
  -30.9135   -0.0483   27.1713 C   0  0  0  0  0  0  0  0  0  0  0  0
  -31.1814    0.1530   25.8714 C   0  0  0  0  0  0  0  0  0  0  0  0
  -30.2020    0.3796   24.8889 C   0  0  0  0  0  0  0  0  0  0  0  0
  -28.8773    0.4278   25.2503 C   0  0  0  0  0  0  0  0  0  0  0  0
  -28.5579    0.2662   26.5803 C   0  0  0  0  0  0  0  0  0  0  0  0
  -27.8286    0.7567   24.2425 C   0  0  0  0  0  0  0  0  0  0  0  0
  -26.5680    1.0391   24.8695 C   0  0  0  0  0  0  0  0  0  0  0  0
  -25.4623    0.9335   24.0593 C   0  0  0  0  0  0  0  0  0  0  0  0
  -32.6278    0.0407   25.4420 C   0  0  0  0  0  0  0  0  0  0  0  0
  -33.3597    0.7840   25.8710 O   0  0  0  0  0  0  0  0  0  0  0  0
  -32.7826   -0.6329   24.3208 O   0  0  0  0  0  0  0  0  0  0  0  0
  -30.5388    0.6581   32.0706 C   0  0  0  0  0  0  0  0  0  0  0  0
  -30.4593    0.3299   33.1684 F   0  0  0  0  0  0  0  0  0  0  0  0
  -31.4889    1.4270   31.6911 F   0  0  0  0  0  0  0  0  0  0  0  0
  -24.1274    1.2315   24.7771 C   0  0  0  0  0  0  0  0  0  0  0  0
  1  2  1  0
  1  8  1  0
  8  9  1  0
 10 11  1  0
  1 12  1  0
  5 13  1  0
 13 14  1  0
 13 15  1  0
 13 16  1  0
  8 17  1  0
 21 23  1  0
 23 24  2  3
 24 25  1  0
 19 26  1  0
 26 27  2  0
 26 28  1  0
 10 29  1  0
 29 30  1  0
 29 31  1  0
 25 32  1  0
 12 11  1  0
 10  9  1  0
 17 18  2  0
 18 19  1  0
 19 20  2  0
 20 21  1  0
 21 22  2  0
 22 17  1  0
  2  3  2  0
  3  4  1  0
  4  5  2  0
  5  6  1  0
  6  7  2  0
  7  2  1  0
M  END

$$$$
