No_2633-gen_results/8p0m/2024-11-27-11-27-31/
     RDKit          3D

 25 27  0  0  0  0  0  0  0  0999 V2000
  -28.0162   -0.8135   28.8779 C   0  0  0  0  0  0  0  0  0  0  0  0
  -28.4690   -0.7850   29.8287 C   0  0  0  0  0  0  0  0  0  0  0  0
  -26.5041   -0.7777   28.8766 C   0  0  0  0  0  0  0  0  0  0  0  0
  -25.8103   -0.8531   30.1028 C   0  0  0  0  0  0  0  0  0  0  0  0
  -27.9906   -0.8916   31.2257 C   0  0  0  0  0  0  0  0  0  0  0  0
  -26.6042   -0.8676   31.2652 C   0  0  0  0  0  0  0  0  0  0  0  0
  -29.9043   -0.8858   29.9893 O   0  0  0  0  0  0  0  0  0  0  0  0
  -30.5809   -0.1618   29.0933 C   0  0  0  0  0  0  0  0  0  0  0  0
  -31.6268   -0.8726   28.5555 C   0  0  0  0  0  0  0  0  0  0  0  0
  -31.8335   -0.8149   27.2938 O   0  0  0  0  0  0  0  0  0  0  0  0
  -32.4180   -1.7006   29.1893 O   0  0  0  0  0  0  0  0  0  0  0  0
  -25.6776   -0.6932   27.6573 C   0  0  0  0  0  0  0  0  0  0  0  0
  -25.3211    0.6603   27.2720 C   0  0  0  0  0  0  0  0  0  0  0  0
  -25.3905    1.0752   26.0317 C   0  0  0  0  0  0  0  0  0  0  0  0
  -24.8788    2.3369   25.6007 C   0  0  0  0  0  0  0  0  0  0  0  0
  -24.2667    3.1392   26.6438 C   0  0  0  0  0  0  0  0  0  0  0  0
  -24.5963    1.6030   28.0940 C   0  0  0  0  0  0  0  0  0  0  0  0
  -24.0862    2.7241   27.8102 C   0  0  0  0  0  0  0  0  0  0  0  0
  -31.1446    1.0596   29.8172 C   0  0  0  0  0  0  0  0  0  0  0  0
  -30.5254    2.2600   29.5186 C   0  0  0  0  0  0  0  0  0  0  0  0
  -29.6917    2.4548   28.5388 C   0  0  0  0  0  0  0  0  0  0  0  0
  -28.7147    3.5023   28.5688 C   0  0  0  0  0  0  0  0  0  0  0  0
  -28.8254    4.4831   29.5385 C   0  0  0  0  0  0  0  0  0  0  0  0
  -29.7541    4.3426   30.5548 C   0  0  0  0  0  0  0  0  0  0  0  0
  -30.5404    3.1975   30.6162 C   0  0  0  0  0  0  0  0  0  0  0  0
  2  7  1  0
  7  8  1  0
  8  9  1  0
  9 10  2  0
  9 11  1  0
  3 12  1  0
 12 13  1  0
  8 19  1  0
 19 20  1  0
 13 14  2  0
 14 15  1  0
 15 16  2  0
 16 18  1  0
 18 17  2  0
 17 13  1  0
  1  2  2  0
  2  5  1  0
  5  6  2  0
  6  4  1  0
  4  3  2  0
  3  1  1  0
 20 21  2  0
 21 22  1  0
 22 23  2  0
 23 24  1  0
 24 25  2  0
 25 20  1  0
M  END

$$$$
