No_2462-gen_results/8p0m/2024-11-27-11-27-31/
     RDKit          3D

 19 20  0  0  0  0  0  0  0  0999 V2000
  -28.0162   -0.8135   28.8779 C   0  0  0  0  0  0  0  0  0  0  0  0
  -27.0636   -0.1189   28.6079 C   0  0  0  0  0  0  0  0  0  0  0  0
  -26.9716    0.7139   27.5060 C   0  0  0  0  0  0  0  0  0  0  0  0
  -25.8205    1.4909   27.1160 C   0  0  0  0  0  0  0  0  0  0  0  0
  -24.6562    1.4242   27.9180 C   0  0  0  0  0  0  0  0  0  0  0  0
  -24.6847    0.5901   29.0659 C   0  0  0  0  0  0  0  0  0  0  0  0
  -25.8099   -0.1265   29.3338 C   0  0  0  0  0  0  0  0  0  0  0  0
  -29.2444   -0.0768   29.2011 C   0  0  0  0  0  0  0  0  0  0  0  0
  -29.6215    0.8331   28.5664 C   0  0  0  0  0  0  0  0  0  0  0  0
  -30.9262    1.4080   28.8245 C   0  0  0  0  0  0  0  0  0  0  0  0
  -31.3621    2.5744   28.1359 C   0  0  0  0  0  0  0  0  0  0  0  0
  -30.4736    3.0834   27.1483 C   0  0  0  0  0  0  0  0  0  0  0  0
  -29.2842    2.5735   26.8522 C   0  0  0  0  0  0  0  0  0  0  0  0
  -28.8248    1.5164   27.5335 C   0  0  0  0  0  0  0  0  0  0  0  0
  -28.6355    0.8684   26.5453 F   0  0  0  0  0  0  0  0  0  0  0  0
  -27.0241   -0.4237   26.4294 C   0  0  0  0  0  0  0  0  0  0  0  0
  -27.2018    1.7092   26.7881 C   0  0  0  0  0  0  0  0  0  0  0  0
  -27.2057    2.7874   25.7743 C   0  0  0  0  0  0  0  0  0  0  0  0
  -27.0303    3.2754   27.2755 C   0  0  0  0  0  0  0  0  0  0  0  0
  2  3  1  0
  3  4  1  0
  4  5  1  0
  5  6  1  0
  2  7  1  0
  1  8  1  0
 14 15  1  0
  3 16  1  0
  3 17  1  0
 17 18  1  0
 18 19  1  0
  1  2  1  0
  8  9  1  0
  7  6  1  0
  9 10  2  0
 10 11  1  0
 11 12  2  0
 12 13  1  0
 13 14  2  0
 14  9  1  0
M  END

$$$$
