No_271-gen_results/8p0m/2024-11-27-11-27-31/
     RDKit          3D

 19 21  0  0  0  0  0  0  0  0999 V2000
  -28.0162   -0.8135   28.8779 C   0  0  0  0  0  0  0  0  0  0  0  0
  -28.4690   -0.7850   29.8287 C   0  0  0  0  0  0  0  0  0  0  0  0
  -26.5042   -0.7777   28.8766 C   0  0  0  0  0  0  0  0  0  0  0  0
  -25.8103   -0.8531   30.1028 C   0  0  0  0  0  0  0  0  0  0  0  0
  -27.9906   -0.8916   31.2257 C   0  0  0  0  0  0  0  0  0  0  0  0
  -26.6042   -0.8676   31.2652 C   0  0  0  0  0  0  0  0  0  0  0  0
  -30.2937   -0.8377   29.8355 Cl  0  0  0  0  0  0  0  0  0  0  0  0
  -24.4719   -0.7989   30.1213 O   0  0  0  0  0  0  0  0  0  0  0  0
  -23.6807   -0.8990   29.1006 C   0  0  0  0  0  0  0  0  0  0  0  0
  -22.2190   -0.7146   29.4614 C   0  0  0  0  0  0  0  0  0  0  0  0
  -21.5340   -0.0198   28.5374 O   0  0  0  0  0  0  0  0  0  0  0  0
  -21.8361    1.3774   28.3430 C   0  0  0  0  0  0  0  0  0  0  0  0
  -22.9946    1.5574   27.4514 C   0  0  0  0  0  0  0  0  0  0  0  0
  -22.9158    2.1773   26.2627 C   0  0  0  0  0  0  0  0  0  0  0  0
  -24.0617    2.3642   25.4476 C   0  0  0  0  0  0  0  0  0  0  0  0
  -25.2997    1.9404   26.0316 C   0  0  0  0  0  0  0  0  0  0  0  0
  -25.3981    1.3626   27.2258 C   0  0  0  0  0  0  0  0  0  0  0  0
  -24.2508    1.1806   28.0196 C   0  0  0  0  0  0  0  0  0  0  0  0
  -24.0299    0.2727   28.2078 O   0  0  0  0  0  0  0  0  0  0  0  0
  2  7  1  0
  4  8  1  0
  8  9  1  0
  9 10  1  0
 10 11  1  0
 11 12  1  0
 12 13  1  0
  9 19  1  0
 18 19  1  0
 13 14  2  0
 14 15  1  0
 15 16  2  0
 16 17  1  0
 17 18  2  0
 18 13  1  0
  1  2  2  0
  2  5  1  0
  5  6  2  0
  6  4  1  0
  4  3  2  0
  3  1  1  0
M  END

$$$$
