No_2113-gen_results/8p0m/2024-11-27-11-27-31/
     RDKit          3D

 17 19  0  0  0  0  0  0  0  0999 V2000
  -28.0162   -0.8135   28.8779 C   0  0  0  0  0  0  0  0  0  0  0  0
  -27.0636   -0.1189   28.6079 C   0  0  0  0  0  0  0  0  0  0  0  0
  -26.9716    0.7139   27.5060 C   0  0  0  0  0  0  0  0  0  0  0  0
  -28.1053    0.7744   26.6421 C   0  0  0  0  0  0  0  0  0  0  0  0
  -29.2008    0.1044   27.0527 C   0  0  0  0  0  0  0  0  0  0  0  0
  -29.2096   -0.6029   28.1853 C   0  0  0  0  0  0  0  0  0  0  0  0
  -30.3702    0.2263   26.1604 C   0  0  0  0  0  0  0  0  0  0  0  0
  -31.3165   -0.4572   26.3805 N   0  0  0  0  0  0  0  0  0  0  0  0
  -30.1445    0.6577   24.9733 O   0  0  0  0  0  0  0  0  0  0  0  0
  -31.6531   -1.1075   27.6156 C   0  0  0  0  0  0  0  0  0  0  0  0
  -30.4886   -1.2944   28.4702 C   0  0  0  0  0  0  0  0  0  0  0  0
  -32.5930   -0.4243   25.4476 C   0  0  0  0  0  0  0  0  0  0  0  0
  -25.6593    1.4144   27.1498 C   0  0  0  0  0  0  0  0  0  0  0  0
  -25.3584    2.0681   26.3860 N   0  0  0  0  0  0  0  0  0  0  0  0
  -24.0764    2.5983   26.1653 C   0  0  0  0  0  0  0  0  0  0  0  0
  -23.1859    1.9811   27.0870 C   0  0  0  0  0  0  0  0  0  0  0  0
  -24.3722    0.9816   27.8997 C   0  0  0  0  0  0  0  0  0  0  0  0
  5  7  1  0
  7  8  1  0
  7  9  2  0
  8 10  1  0
  6 11  1  0
 10 11  1  0
  8 12  1  0
  3 13  1  0
 13 14  1  0
 14 15  2  0
 15 16  1  0
 13 17  1  0
 16 17  2  0
  1  2  2  0
  2  3  1  0
  3  4  2  0
  4  5  1  0
  5  6  2  0
  6  1  1  0
M  END

$$$$
