No_2891-gen_results/8p0m/2024-11-27-11-27-31/
     RDKit          3D

 10 10  0  0  0  0  0  0  0  0999 V2000
  -28.1229   -1.3353   28.4874 O   0  0  0  0  0  0  0  0  0  0  0  0
  -27.4806   -0.4044   28.7094 C   0  0  0  0  0  0  0  0  0  0  0  0
  -27.1904    0.2460   29.5268 C   0  0  0  0  0  0  0  0  0  0  0  0
  -26.6871   -0.0001   27.4423 N   0  0  0  0  0  0  0  0  0  0  0  0
  -26.3501    1.4331   29.7418 C   0  0  0  0  0  0  0  0  0  0  0  0
  -25.8648    1.0936   27.4148 C   0  0  0  0  0  0  0  0  0  0  0  0
  -25.6589    1.8314   28.5720 C   0  0  0  0  0  0  0  0  0  0  0  0
  -27.8577   -0.2875   30.8558 C   0  0  0  0  0  0  0  0  0  0  0  0
  -27.1551   -0.5295   31.8465 C   0  0  0  0  0  0  0  0  0  0  0  0
  -28.7942   -1.3417   30.4640 C   0  0  0  0  0  0  0  0  0  0  0  0
  1  2  2  0
  2  3  1  0
  2  4  1  0
  4  6  1  0
  5  7  1  0
  3  8  1  0
  8  9  1  0
  8 10  1  0
  3  5  1  0
  7  6  1  0
M  END

$$$$
