No_2078-gen_results/8p0m/2024-11-27-11-27-31/
     RDKit          3D

 11 11  0  0  0  0  0  0  0  0999 V2000
  -28.0162   -0.8135   28.8779 C   0  0  0  0  0  0  0  0  0  0  0  0
  -27.0636   -0.1189   28.6079 C   0  0  0  0  0  0  0  0  0  0  0  0
  -26.9287    1.1713   29.0083 C   0  0  0  0  0  0  0  0  0  0  0  0
  -27.9560    1.7411   29.7840 C   0  0  0  0  0  0  0  0  0  0  0  0
  -29.0569   -0.3271   29.7466 C   0  0  0  0  0  0  0  0  0  0  0  0
  -28.9828    0.9722   30.1516 C   0  0  0  0  0  0  0  0  0  0  0  0
  -25.8251   -0.4331   27.7536 C   0  0  0  0  0  0  0  0  0  0  0  0
  -24.6128    0.0351   28.0435 C   0  0  0  0  0  0  0  0  0  0  0  0
  -24.5335    1.3815   28.5220 C   0  0  0  0  0  0  0  0  0  0  0  0
  -23.2413    2.0393   28.6309 C   0  0  0  0  0  0  0  0  0  0  0  0
  -25.7308    1.9711   29.1109 C   0  0  0  0  0  0  0  0  0  0  0  0
  2  7  1  0
  7  8  2  3
  8  9  1  0
  9 10  1  0
  9 11  1  0
  1  2  2  0
  2  3  1  0
  3  4  2  0
  4  6  1  0
  6  5  2  0
  5  1  1  0
M  END

$$$$
