No_2800-gen_results/8p0m/2024-11-27-11-27-31/
     RDKit          3D

 27 30  0  0  0  0  0  0  0  0999 V2000
  -28.0162   -0.8135   28.8779 C   0  0  0  0  0  0  0  0  0  0  0  0
  -27.0636   -0.1189   28.6079 C   0  0  0  0  0  0  0  0  0  0  0  0
  -25.7647   -0.3897   29.0360 C   0  0  0  0  0  0  0  0  0  0  0  0
  -25.5296   -1.5302   29.9014 C   0  0  0  0  0  0  0  0  0  0  0  0
  -26.6888   -2.2893   30.1810 C   0  0  0  0  0  0  0  0  0  0  0  0
  -26.4988   -3.4805   30.9196 C   0  0  0  0  0  0  0  0  0  0  0  0
  -27.9248   -1.9917   29.6873 C   0  0  0  0  0  0  0  0  0  0  0  0
  -27.1308    1.1698   27.7861 C   0  0  0  0  0  0  0  0  0  0  0  0
  -27.9230    1.6666   27.4059 C   0  0  0  0  0  0  0  0  0  0  0  0
  -27.9235    2.8883   26.4852 C   0  0  0  0  0  0  0  0  0  0  0  0
  -26.7097    3.3897   26.0714 C   0  0  0  0  0  0  0  0  0  0  0  0
  -25.5407    2.7301   26.5175 C   0  0  0  0  0  0  0  0  0  0  0  0
  -25.6501    1.6774   27.3458 C   0  0  0  0  0  0  0  0  0  0  0  0
  -27.2702   -4.5458   30.0369 C   0  0  0  0  0  0  0  0  0  0  0  0
  -24.2337    3.2748   26.1462 C   0  0  0  0  0  0  0  0  0  0  0  0
  -23.0872    2.3655   26.3513 C   0  0  0  0  0  0  0  0  0  0  0  0
  -23.3306    1.2879   27.2900 C   0  0  0  0  0  0  0  0  0  0  0  0
  -24.5218    0.9221   27.7060 C   0  0  0  0  0  0  0  0  0  0  0  0
  -24.5590    0.0732   28.5956 C   0  0  0  0  0  0  0  0  0  0  0  0
  -28.5818   -4.5886   30.1723 O   0  0  0  0  0  0  0  0  0  0  0  0
  -29.3994   -4.9363   29.3409 C   0  0  0  0  0  0  0  0  0  0  0  0
  -30.7444   -5.1912   29.8161 C   0  0  0  0  0  0  0  0  0  0  0  0
  -31.0895   -5.0894   30.8604 O   0  0  0  0  0  0  0  0  0  0  0  0
  -31.5004   -5.9427   28.8745 N   0  0  0  0  0  0  0  0  0  0  0  0
  -32.8326   -6.4209   29.1932 C   0  0  0  0  0  0  0  0  0  0  0  0
  -33.3587   -7.0721   28.2916 C   0  0  0  0  0  0  0  0  0  0  0  0
  -34.4178   -7.5390   28.1129 C   0  0  0  0  0  0  0  0  0  0  0  0
  5  6  1  0
  2  8  1  0
  6 14  1  0
  3 19  1  0
 18 19  1  0
 14 20  1  0
 20 21  1  0
 21 22  1  0
 22 23  2  0
 22 24  1  0
 24 25  1  0
 25 26  2  3
 26 27  1  0
  1  2  2  0
  2  3  1  0
  3  4  2  0
  4  5  1  0
  5  7  2  0
  7  1  1  0
  8  9  2  0
  9 10  1  0
 10 11  2  0
 11 12  1  0
 13  8  1  0
 12 13  2  0
 13 18  1  0
 18 17  2  0
 17 16  1  0
 16 15  2  0
 15 12  1  0
M  END

$$$$
