No_2010-gen_results/8p0m/2024-11-27-11-27-31/
     RDKit          3D

 35 37  0  0  0  0  0  0  0  0999 V2000
  -28.0162   -0.8135   28.8779 C   0  0  0  0  0  0  0  0  0  0  0  0
  -27.0636   -0.1190   28.6079 C   0  0  0  0  0  0  0  0  0  0  0  0
  -27.0010    0.6913   27.4910 C   0  0  0  0  0  0  0  0  0  0  0  0
  -28.1373    0.7363   26.6350 C   0  0  0  0  0  0  0  0  0  0  0  0
  -28.1438    1.4322   25.4880 C   0  0  0  0  0  0  0  0  0  0  0  0
  -29.2801   -0.5524   28.2479 C   0  0  0  0  0  0  0  0  0  0  0  0
  -29.2552    0.0950   27.0446 C   0  0  0  0  0  0  0  0  0  0  0  0
  -28.5317    2.6153   25.4770 C   0  0  0  0  0  0  0  0  0  0  0  0
  -27.6373    0.8030   24.2694 C   0  0  0  0  0  0  0  0  0  0  0  0
  -28.7941    3.4416   26.6231 C   0  0  0  0  0  0  0  0  0  0  0  0
  -29.4865    4.1625   27.0998 C   0  0  0  0  0  0  0  0  0  0  0  0
  -29.4207    4.9747   28.2791 C   0  0  0  0  0  0  0  0  0  0  0  0
  -28.2904    4.7616   29.0490 C   0  0  0  0  0  0  0  0  0  0  0  0
  -28.0765    5.3987   30.3241 C   0  0  0  0  0  0  0  0  0  0  0  0
  -27.4841    3.4685   27.6083 C   0  0  0  0  0  0  0  0  0  0  0  0
  -27.3100    4.1693   28.6981 C   0  0  0  0  0  0  0  0  0  0  0  0
  -28.9295    6.0102   30.9414 O   0  0  0  0  0  0  0  0  0  0  0  0
  -26.8576    5.2321   30.9878 N   0  0  0  0  0  0  0  0  0  0  0  0
  -26.6125    5.7505   32.3110 C   0  0  0  0  0  0  0  0  0  0  0  0
  -25.3033    5.2033   32.7833 C   0  0  0  0  0  0  0  0  0  0  0  0
  -25.4142    3.8523   33.2725 C   0  0  0  0  0  0  0  0  0  0  0  0
  -26.3019    3.6228   34.1782 C   0  0  0  0  0  0  0  0  0  0  0  0
  -26.7631    2.2218   34.3005 C   0  0  0  0  0  0  0  0  0  0  0  0
  -26.1609    1.2464   33.5198 C   0  0  0  0  0  0  0  0  0  0  0  0
  -25.2529    1.5814   32.5010 C   0  0  0  0  0  0  0  0  0  0  0  0
  -24.9420    2.9318   32.3285 C   0  0  0  0  0  0  0  0  0  0  0  0
  -28.0883   -1.6324   30.1724 C   0  0  0  0  0  0  0  0  0  0  0  0
  -28.5771   -1.2127   31.1436 F   0  0  0  0  0  0  0  0  0  0  0  0
  -28.6720   -2.8352   29.8665 F   0  0  0  0  0  0  0  0  0  0  0  0
  -26.7435   -2.0947   30.3630 F   0  0  0  0  0  0  0  0  0  0  0  0
  -30.3955    0.2337   26.4519 F   0  0  0  0  0  0  0  0  0  0  0  0
  -30.9005    4.3688   26.4147 C   0  0  0  0  0  0  0  0  0  0  0  0
  -31.1062    3.9839   25.4281 O   0  0  0  0  0  0  0  0  0  0  0  0
  -31.8811    5.1238   27.0835 N   0  0  0  0  0  0  0  0  0  0  0  0
  -33.1521    5.3261   26.4924 C   0  0  0  0  0  0  0  0  0  0  0  0
  4  5  1  0
  5  8  2  3
  5  9  1  0
  8 10  1  0
 13 14  1  0
 14 17  2  0
 14 18  1  0
 18 19  1  0
 19 20  1  0
 20 21  1  0
  1 27  1  0
 27 28  1  0
 27 29  1  0
 27 30  1  0
  7 31  1  0
 11 32  1  0
 32 33  2  0
 32 34  1  0
 34 35  1  0
 21 22  2  0
 22 23  1  0
 23 24  2  0
 24 25  1  0
 25 26  2  0
 26 21  1  0
 10 11  2  0
 11 12  1  0
 12 13  2  0
 13 16  1  0
 16 15  2  0
 15 10  1  0
  1  2  2  0
  2  3  1  0
  3  4  2  0
  4  7  1  0
  7  6  2  0
  6  1  1  0
M  END

$$$$
