No_268-gen_results/8p0m/2024-11-27-11-27-31/
     RDKit          3D

 19 20  0  0  0  0  0  0  0  0999 V2000
  -28.0162   -0.8135   28.8779 C   0  0  0  0  0  0  0  0  0  0  0  0
  -28.4690   -0.7850   29.8287 C   0  0  0  0  0  0  0  0  0  0  0  0
  -26.5042   -0.7777   28.8766 C   0  0  0  0  0  0  0  0  0  0  0  0
  -25.8103   -0.8531   30.1028 C   0  0  0  0  0  0  0  0  0  0  0  0
  -27.9906   -0.8916   31.2257 C   0  0  0  0  0  0  0  0  0  0  0  0
  -26.6042   -0.8676   31.2652 C   0  0  0  0  0  0  0  0  0  0  0  0
  -29.9385   -0.8194   29.8358 O   0  0  0  0  0  0  0  0  0  0  0  0
  -30.5356   -0.1119   28.9448 C   0  0  0  0  0  0  0  0  0  0  0  0
  -31.4501   -0.5434   28.1111 C   0  0  0  0  0  0  0  0  0  0  0  0
  -32.0734   -1.7311   28.4048 C   0  0  0  0  0  0  0  0  0  0  0  0
  -32.7082   -2.5166   27.3788 C   0  0  0  0  0  0  0  0  0  0  0  0
  -31.7281   -0.0565   26.8133 C   0  0  0  0  0  0  0  0  0  0  0  0
  -32.4591   -0.7140   25.8440 C   0  0  0  0  0  0  0  0  0  0  0  0
  -32.9970   -1.9707   26.1626 C   0  0  0  0  0  0  0  0  0  0  0  0
  -30.2506    1.1963   28.9644 O   0  0  0  0  0  0  0  0  0  0  0  0
  -24.4060   -0.9418   30.3214 C   0  0  0  0  0  0  0  0  0  0  0  0
  -24.0437   -0.6144   31.4000 F   0  0  0  0  0  0  0  0  0  0  0  0
  -23.7837   -0.0710   29.4076 F   0  0  0  0  0  0  0  0  0  0  0  0
  -23.9414   -2.1891   29.9818 F   0  0  0  0  0  0  0  0  0  0  0  0
  2  7  1  0
  7  8  1  0
  8  9  1  0
  8 15  2  0
  4 16  1  0
 16 17  1  0
 16 18  1  0
 16 19  1  0
  9 10  2  0
 10 11  1  0
 11 14  2  0
 14 13  1  0
 13 12  2  0
 12  9  1  0
  1  2  2  0
  2  5  1  0
  5  6  2  0
  6  4  1  0
  4  3  2  0
  3  1  1  0
M  END

$$$$
