No_2467-gen_results/8p0m/2024-11-27-11-27-31/
     RDKit          3D

 12 13  0  0  0  0  0  0  0  0999 V2000
  -28.0162   -0.8135   28.8779 C   0  0  0  0  0  0  0  0  0  0  0  0
  -27.0636   -0.1189   28.6079 C   0  0  0  0  0  0  0  0  0  0  0  0
  -25.7923   -0.4302   29.0761 C   0  0  0  0  0  0  0  0  0  0  0  0
  -24.5456    0.3494   28.8225 C   0  0  0  0  0  0  0  0  0  0  0  0
  -23.2409    0.0217   29.3323 C   0  0  0  0  0  0  0  0  0  0  0  0
  -27.8820   -1.8995   29.8633 C   0  0  0  0  0  0  0  0  0  0  0  0
  -26.6477   -2.3421   30.3344 C   0  0  0  0  0  0  0  0  0  0  0  0
  -25.5040   -1.5657   29.9828 C   0  0  0  0  0  0  0  0  0  0  0  0
  -22.1633    0.7943   28.9525 C   0  0  0  0  0  0  0  0  0  0  0  0
  -22.1182    1.7486   27.9892 C   0  0  0  0  0  0  0  0  0  0  0  0
  -24.6093    1.6171   28.0961 C   0  0  0  0  0  0  0  0  0  0  0  0
  -23.3775    2.2165   27.6232 C   0  0  0  0  0  0  0  0  0  0  0  0
  3  4  1  0
  1  2  2  0
  2  3  1  0
  3  8  2  0
  8  7  1  0
  7  6  2  0
  6  1  1  0
  4  5  2  0
  5  9  1  0
  9 10  2  0
 10 12  1  0
 12 11  2  0
 11  4  1  0
M  END

$$$$
