No_2279-gen_results/8p0m/2024-11-27-11-27-31/
     RDKit          3D

 18 20  0  0  0  0  0  0  0  0999 V2000
  -28.0162   -0.8135   28.8779 C   0  0  0  0  0  0  0  0  0  0  0  0
  -27.0636   -0.1189   28.6079 C   0  0  0  0  0  0  0  0  0  0  0  0
  -25.7647   -0.3897   29.0360 C   0  0  0  0  0  0  0  0  0  0  0  0
  -24.5517    0.4058   28.7646 C   0  0  0  0  0  0  0  0  0  0  0  0
  -23.2300    0.1178   29.2575 C   0  0  0  0  0  0  0  0  0  0  0  0
  -23.0942   -1.1309   29.8730 C   0  0  0  0  0  0  0  0  0  0  0  0
  -27.7980   -1.9341   29.8560 C   0  0  0  0  0  0  0  0  0  0  0  0
  -26.5420   -2.3268   30.2580 C   0  0  0  0  0  0  0  0  0  0  0  0
  -25.4514   -1.5516   29.9079 C   0  0  0  0  0  0  0  0  0  0  0  0
  -24.1562   -1.9097   30.2809 C   0  0  0  0  0  0  0  0  0  0  0  0
  -24.6450    1.6582   27.9464 C   0  0  0  0  0  0  0  0  0  0  0  0
  -24.8818    2.7021   28.4939 N   0  0  0  0  0  0  0  0  0  0  0  0
  -24.1151    1.6488   26.7653 O   0  0  0  0  0  0  0  0  0  0  0  0
  -25.4549    3.0134   29.7862 C   0  0  0  0  0  0  0  0  0  0  0  0
  -25.9353    4.2700   30.0858 C   0  0  0  0  0  0  0  0  0  0  0  0
  -25.8233    5.2780   29.0890 C   0  0  0  0  0  0  0  0  0  0  0  0
  -25.2943    5.0151   27.8272 C   0  0  0  0  0  0  0  0  0  0  0  0
  -24.9159    3.7925   27.5676 C   0  0  0  0  0  0  0  0  0  0  0  0
  4 11  1  0
 11 12  1  0
 11 13  2  0
 12 14  1  0
 15 16  1  0
 12 18  1  0
 17 18  1  0
 14 15  1  0
 16 17  1  0
  1  2  2  0
  2  3  1  0
  9  8  1  0
  8  7  2  0
  7  1  1  0
  3  4  2  0
  4  5  1  0
  5  6  2  0
  6 10  1  0
 10  9  2  0
  9  3  1  0
M  END

$$$$
