No_2121-gen_results/8p0m/2024-11-27-11-27-31/
     RDKit          3D

 15 17  0  0  0  0  0  0  0  0999 V2000
  -28.0162   -0.8135   28.8779 C   0  0  0  0  0  0  0  0  0  0  0  0
  -27.0636   -0.1189   28.6079 C   0  0  0  0  0  0  0  0  0  0  0  0
  -26.9287    1.1713   29.0083 C   0  0  0  0  0  0  0  0  0  0  0  0
  -25.7702    2.0341   28.6884 C   0  0  0  0  0  0  0  0  0  0  0  0
  -24.7141    1.4431   27.9188 C   0  0  0  0  0  0  0  0  0  0  0  0
  -23.5566    2.1673   27.5933 C   0  0  0  0  0  0  0  0  0  0  0  0
  -29.0912   -0.2748   29.7317 C   0  0  0  0  0  0  0  0  0  0  0  0
  -29.0503    0.9872   30.1426 C   0  0  0  0  0  0  0  0  0  0  0  0
  -27.9501    1.7660   29.8118 C   0  0  0  0  0  0  0  0  0  0  0  0
  -26.1246    3.3655   27.9894 C   0  0  0  0  0  0  0  0  0  0  0  0
  -22.4052    1.4543   27.1817 C   0  0  0  0  0  0  0  0  0  0  0  0
  -22.2319    0.2027   27.7598 C   0  0  0  0  0  0  0  0  0  0  0  0
  -23.2875   -0.4772   28.4062 C   0  0  0  0  0  0  0  0  0  0  0  0
  -24.5165    0.1596   28.5283 C   0  0  0  0  0  0  0  0  0  0  0  0
  -25.7740   -0.7167   28.2396 N   0  0  0  0  0  0  0  0  0  0  0  0
  4 10  1  0
  1  2  2  0
  3  9  2  0
  9  8  1  0
  8  7  2  0
  7  1  1  0
  2  3  1  0
  3  4  1  0
  4  5  2  0
 14 15  2  0
 15  2  1  0
  5  6  1  0
  6 11  2  0
 11 12  1  0
 12 13  2  0
 13 14  1  0
 14  5  1  0
M  END

$$$$
