No_2099-gen_results/8p0m/2024-11-27-11-27-31/
     RDKit          3D

 21 24  0  0  0  0  0  0  0  0999 V2000
  -28.0162   -0.8135   28.8779 C   0  0  0  0  0  0  0  0  0  0  0  0
  -27.0636   -0.1189   28.6079 C   0  0  0  0  0  0  0  0  0  0  0  0
  -25.7923   -0.4302   29.0761 C   0  0  0  0  0  0  0  0  0  0  0  0
  -25.5756   -1.5654   29.9363 C   0  0  0  0  0  0  0  0  0  0  0  0
  -26.7354   -2.3004   30.2173 C   0  0  0  0  0  0  0  0  0  0  0  0
  -27.9184   -1.9537   29.7629 C   0  0  0  0  0  0  0  0  0  0  0  0
  -27.3243    1.0850   27.8190 C   0  0  0  0  0  0  0  0  0  0  0  0
  -26.2674    1.9087   27.5697 C   0  0  0  0  0  0  0  0  0  0  0  0
  -24.8868    1.5477   28.0393 C   0  0  0  0  0  0  0  0  0  0  0  0
  -24.6633    0.4445   28.8042 C   0  0  0  0  0  0  0  0  0  0  0  0
  -23.5312    0.3057   29.5770 C   0  0  0  0  0  0  0  0  0  0  0  0
  -23.2270    0.9641   30.5973 C   0  0  0  0  0  0  0  0  0  0  0  0
  -22.5204   -0.6511   29.0326 C   0  0  0  0  0  0  0  0  0  0  0  0
  -21.1235   -0.6576   29.4949 C   0  0  0  0  0  0  0  0  0  0  0  0
  -24.1548    1.8196   31.0587 F   0  0  0  0  0  0  0  0  0  0  0  0
  -20.9583    0.1174   30.4832 N   0  0  0  0  0  0  0  0  0  0  0  0
  -21.9900    0.9638   31.0230 C   0  0  0  0  0  0  0  0  0  0  0  0
  -28.5725    1.3608   27.2010 C   0  0  0  0  0  0  0  0  0  0  0  0
  -28.7180    2.2566   26.2108 C   0  0  0  0  0  0  0  0  0  0  0  0
  -27.5750    3.2050   26.0096 C   0  0  0  0  0  0  0  0  0  0  0  0
  -26.3200    3.0102   26.6134 C   0  0  0  0  0  0  0  0  0  0  0  0
 10 11  1  0
 12 15  1  0
  8 21  2  0
 21 20  1  0
 20 19  2  0
 19 18  1  0
 18  7  2  0
  1  2  2  0
  3  4  2  0
  4  5  1  0
  5  6  2  0
  6  1  1  0
  2  3  1  0
  3 10  1  0
 10  9  2  0
  9  8  1  0
  8  7  1  0
  7  2  1  0
 11 12  2  0
 12 17  1  0
 17 16  2  0
 16 14  1  0
 14 13  2  0
 13 11  1  0
M  END

$$$$
