No_2638-gen_results/8p0m/2024-11-27-11-27-31/
     RDKit          3D

 20 22  0  0  0  0  0  0  0  0999 V2000
  -28.0162   -0.8135   28.8779 C   0  0  0  0  0  0  0  0  0  0  0  0
  -27.0636   -0.1190   28.6079 C   0  0  0  0  0  0  0  0  0  0  0  0
  -25.7647   -0.3897   29.0360 C   0  0  0  0  0  0  0  0  0  0  0  0
  -25.5296   -1.5302   29.9014 C   0  0  0  0  0  0  0  0  0  0  0  0
  -26.6888   -2.2893   30.1810 C   0  0  0  0  0  0  0  0  0  0  0  0
  -27.8727   -1.9508   29.7373 C   0  0  0  0  0  0  0  0  0  0  0  0
  -24.5491    0.4100   28.7341 C   0  0  0  0  0  0  0  0  0  0  0  0
  -24.4789    1.1871   27.6843 C   0  0  0  0  0  0  0  0  0  0  0  0
  -25.1757    1.5312   26.7988 C   0  0  0  0  0  0  0  0  0  0  0  0
  -26.5030    1.0280   26.7478 C   0  0  0  0  0  0  0  0  0  0  0  0
  -27.2058    0.3670   27.5488 C   0  0  0  0  0  0  0  0  0  0  0  0
  -23.3389    0.0982   29.5926 C   0  0  0  0  0  0  0  0  0  0  0  0
  -23.2612    0.6229   30.8036 C   0  0  0  0  0  0  0  0  0  0  0  0
  -22.2693   -0.5910   29.0350 C   0  0  0  0  0  0  0  0  0  0  0  0
  -24.0710    0.8156   31.5407 C   0  0  0  0  0  0  0  0  0  0  0  0
  -24.7611    2.0751   32.0421 C   0  0  0  0  0  0  0  0  0  0  0  0
  -25.7737    2.1489   32.9978 C   0  0  0  0  0  0  0  0  0  0  0  0
  -26.1741    0.9134   33.5419 C   0  0  0  0  0  0  0  0  0  0  0  0
  -25.6143   -0.2763   33.1697 C   0  0  0  0  0  0  0  0  0  0  0  0
  -24.6122   -0.3324   32.3307 C   0  0  0  0  0  0  0  0  0  0  0  0
  3  7  1  0
  7  8  1  0
  8  9  2  0
  9 10  1  0
  2 11  1  0
 10 11  2  0
  7 12  1  0
 12 13  2  3
 12 14  1  0
 13 15  1  0
 15 16  2  0
 16 17  1  0
 17 18  2  0
 18 19  1  0
 19 20  2  0
 20 15  1  0
  1  2  2  0
  2  3  1  0
  3  4  2  0
  4  5  1  0
  5  6  2  0
  6  1  1  0
M  END

$$$$
