No_2117-gen_results/8p0m/2024-11-27-11-27-31/
     RDKit          3D

 20 22  0  0  0  0  0  0  0  0999 V2000
  -28.0162   -0.8135   28.8779 C   0  0  0  0  0  0  0  0  0  0  0  0
  -28.4690   -0.7850   29.8287 C   0  0  0  0  0  0  0  0  0  0  0  0
  -28.1816    0.4277   28.1134 C   0  0  0  0  0  0  0  0  0  0  0  0
  -27.4498    0.6435   26.8500 C   0  0  0  0  0  0  0  0  0  0  0  0
  -26.4529    0.9939   26.6681 C   0  0  0  0  0  0  0  0  0  0  0  0
  -25.3920    0.8711   26.8550 C   0  0  0  0  0  0  0  0  0  0  0  0
  -24.1543    1.5299   26.3778 C   0  0  0  0  0  0  0  0  0  0  0  0
  -28.2823   -2.0029   30.8278 C   0  0  0  0  0  0  0  0  0  0  0  0
  -29.0759   -2.2721   31.8952 C   0  0  0  0  0  0  0  0  0  0  0  0
  -23.2640    2.3420   26.9916 C   0  0  0  0  0  0  0  0  0  0  0  0
  -22.7902    1.6866   28.2384 C   0  0  0  0  0  0  0  0  0  0  0  0
  -23.6410    0.7515   28.8835 C   0  0  0  0  0  0  0  0  0  0  0  0
  -24.8924    0.4163   28.2176 C   0  0  0  0  0  0  0  0  0  0  0  0
  -29.0812    1.3021   28.6866 C   0  0  0  0  0  0  0  0  0  0  0  0
  -29.6608    1.1703   29.8343 N   0  0  0  0  0  0  0  0  0  0  0  0
  -29.3633    0.0954   30.5455 C   0  0  0  0  0  0  0  0  0  0  0  0
  -29.9052   -1.3176   32.3939 C   0  0  0  0  0  0  0  0  0  0  0  0
  -30.0727   -0.1761   31.7667 C   0  0  0  0  0  0  0  0  0  0  0  0
  -28.3837    0.0531   25.9630 F   0  0  0  0  0  0  0  0  0  0  0  0
  -26.6121    2.1075   25.4509 C   0  0  0  0  0  0  0  0  0  0  0  0
  3  4  1  0
  4  5  1  0
  4 19  1  0
  5 20  1  0
  5  6  1  0
  6  7  2  0
  7 10  1  0
 10 11  2  0
 11 12  1  0
 12 13  2  0
 13  6  1  0
  2  8  1  0
  8  9  2  0
  9 17  1  0
 17 18  2  0
 18 16  1  0
  1  2  2  0
  2 16  1  0
 16 15  2  0
 15 14  1  0
 14  3  2  0
  3  1  1  0
M  END

$$$$
