No_2963-gen_results/8p0m/2024-11-27-11-27-31/
     RDKit          3D

  6  5  0  0  0  0  0  0  0  0999 V2000
  -28.0162   -0.8135   28.8779 C   0  0  0  0  0  0  0  0  0  0  0  0
  -28.4690   -0.7850   29.8287 C   0  0  0  0  0  0  0  0  0  0  0  0
  -26.6028   -1.0596   28.5384 C   0  0  0  0  0  0  0  0  0  0  0  0
  -25.8585   -0.7020   27.4278 C   0  0  0  0  0  0  0  0  0  0  0  0
  -25.7443   -1.8309   29.5291 C   0  0  0  0  0  0  0  0  0  0  0  0
  -26.2222    0.2463   26.5520 C   0  0  0  0  0  0  0  0  0  0  0  0
  1  2  3  0
  1  3  1  0
  3  4  1  0
  3  5  1  0
  4  6  1  0
M  END

$$$$
