No_2093-gen_results/8p0m/2024-11-27-11-27-31/
     RDKit          3D

 16 18  0  0  0  0  0  0  0  0999 V2000
  -28.0162   -0.8135   28.8779 C   0  0  0  0  0  0  0  0  0  0  0  0
  -28.4690   -0.7850   29.8287 C   0  0  0  0  0  0  0  0  0  0  0  0
  -27.1356    0.2359   28.5352 C   0  0  0  0  0  0  0  0  0  0  0  0
  -26.8745    1.2825   29.3982 C   0  0  0  0  0  0  0  0  0  0  0  0
  -27.5070    1.2380   30.6295 C   0  0  0  0  0  0  0  0  0  0  0  0
  -28.3269    0.1637   30.9240 C   0  0  0  0  0  0  0  0  0  0  0  0
  -26.4110    0.3070   27.2192 C   0  0  0  0  0  0  0  0  0  0  0  0
  -25.0121    0.3340   27.3197 C   0  0  0  0  0  0  0  0  0  0  0  0
  -27.0431    0.3567   25.9990 C   0  0  0  0  0  0  0  0  0  0  0  0
  -26.2715    0.2663   24.8487 C   0  0  0  0  0  0  0  0  0  0  0  0
  -24.3072    0.1881   28.5707 C   0  0  0  0  0  0  0  0  0  0  0  0
  -22.9558    0.4914   28.5436 C   0  0  0  0  0  0  0  0  0  0  0  0
  -22.3848    1.2850   27.5148 C   0  0  0  0  0  0  0  0  0  0  0  0
  -23.1558    1.7000   26.4577 C   0  0  0  0  0  0  0  0  0  0  0  0
  -24.4551    1.2635   26.3461 C   0  0  0  0  0  0  0  0  0  0  0  0
  -24.8305    0.8702   24.9260 N   0  0  0  0  0  0  0  0  0  0  0  0
  3  7  1  0
  7  8  1  0
  7  9  1  0
  9 10  1  0
 10 16  1  0
 15 16  1  0
  1  2  2  0
  2  6  1  0
  6  5  2  0
  5  4  1  0
  4  3  2  0
  3  1  1  0
  8 11  2  0
 11 12  1  0
 12 13  2  0
 13 14  1  0
 14 15  2  0
 15  8  1  0
M  END

$$$$
