No_2713-gen_results/8p0m/2024-11-27-11-27-31/
     RDKit          3D

 34 37  0  0  0  0  0  0  0  0999 V2000
  -28.1229   -1.3353   28.4874 O   0  0  0  0  0  0  0  0  0  0  0  0
  -28.5208   -0.4363   29.0779 C   0  0  0  0  0  0  0  0  0  0  0  0
  -27.6655    0.1129   30.0346 C   0  0  0  0  0  0  0  0  0  0  0  0
  -29.7419    0.1102   28.8873 N   0  0  0  0  0  0  0  0  0  0  0  0
  -26.4110    0.2880   29.8706 C   0  0  0  0  0  0  0  0  0  0  0  0
  -25.8333    1.1582   29.1464 C   0  0  0  0  0  0  0  0  0  0  0  0
  -24.3411    1.2433   28.8977 C   0  0  0  0  0  0  0  0  0  0  0  0
  -23.5708    0.2300   29.4599 C   0  0  0  0  0  0  0  0  0  0  0  0
  -24.1666   -0.7780   30.1910 C   0  0  0  0  0  0  0  0  0  0  0  0
  -25.5333   -0.8080   30.4144 C   0  0  0  0  0  0  0  0  0  0  0  0
  -30.5987   -0.4675   27.8702 C   0  0  0  0  0  0  0  0  0  0  0  0
  -22.1051    0.2669   29.2707 C   0  0  0  0  0  0  0  0  0  0  0  0
  -21.5455    1.2927   28.7438 N   0  0  0  0  0  0  0  0  0  0  0  0
  -21.4197   -0.8398   29.4085 O   0  0  0  0  0  0  0  0  0  0  0  0
  -30.3142    1.2110   29.6064 C   0  0  0  0  0  0  0  0  0  0  0  0
  -30.0650    2.3629   29.1407 C   0  0  0  0  0  0  0  0  0  0  0  0
  -30.4825    3.5154   29.9213 C   0  0  0  0  0  0  0  0  0  0  0  0
  -30.1508    4.8623   29.5451 C   0  0  0  0  0  0  0  0  0  0  0  0
  -29.4509    5.0116   28.2944 C   0  0  0  0  0  0  0  0  0  0  0  0
  -29.0591    3.9163   27.5390 C   0  0  0  0  0  0  0  0  0  0  0  0
  -29.3061    2.6403   27.9606 C   0  0  0  0  0  0  0  0  0  0  0  0
  -31.0633    0.4426   26.8477 C   0  0  0  0  0  0  0  0  0  0  0  0
  -31.4711   -0.0860   25.7415 C   0  0  0  0  0  0  0  0  0  0  0  0
  -30.6273    0.0471   24.6112 C   0  0  0  0  0  0  0  0  0  0  0  0
  -30.7323   -0.5861   23.5962 C   0  0  0  0  0  0  0  0  0  0  0  0
  -32.5784   -0.8574   25.5818 C   0  0  0  0  0  0  0  0  0  0  0  0
  -33.4569   -1.0924   26.7385 C   0  0  0  0  0  0  0  0  0  0  0  0
  -31.9007   -1.4436   23.4293 C   0  0  0  0  0  0  0  0  0  0  0  0
  -32.8041   -1.6276   24.4719 C   0  0  0  0  0  0  0  0  0  0  0  0
  -34.1492   -0.0548   27.1739 C   0  0  0  0  0  0  0  0  0  0  0  0
  -34.8614   -0.1461   28.3959 C   0  0  0  0  0  0  0  0  0  0  0  0
  -33.5441   -2.3322   27.3730 C   0  0  0  0  0  0  0  0  0  0  0  0
  -34.3181   -2.5002   28.5561 C   0  0  0  0  0  0  0  0  0  0  0  0
  -35.0017   -1.3725   29.0375 C   0  0  0  0  0  0  0  0  0  0  0  0
  1  2  2  0
  2  3  1  0
  2  4  1  0
  3  5  1  0
  4 11  1  0
  8 12  1  0
 12 13  1  0
 12 14  2  0
  4 15  1  0
 11 22  1  0
 22 23  1  0
 26 27  1  0
 15 16  1  0
 23 24  2  0
 24 25  1  0
 25 28  2  0
 28 29  1  0
 29 26  2  0
 26 23  1  0
  5  6  2  0
  6  7  1  0
  7  8  2  0
  8  9  1  0
  9 10  2  0
 10  5  1  0
 27 30  2  0
 30 31  1  0
 31 34  2  0
 34 33  1  0
 33 32  2  0
 32 27  1  0
 16 17  2  0
 17 18  1  0
 18 19  2  0
 19 20  1  0
 20 21  2  0
 21 16  1  0
M  END

$$$$
