No_2491-gen_results/8p0m/2024-11-27-11-27-31/
     RDKit          3D

 16 17  0  0  0  0  0  0  0  0999 V2000
  -28.0162   -0.8135   28.8779 C   0  0  0  0  0  0  0  0  0  0  0  0
  -28.4690   -0.7850   29.8287 C   0  0  0  0  0  0  0  0  0  0  0  0
  -26.5455   -0.8762   28.8500 C   0  0  0  0  0  0  0  0  0  0  0  0
  -25.8041   -1.0324   30.0571 C   0  0  0  0  0  0  0  0  0  0  0  0
  -26.5373   -1.0386   31.2171 C   0  0  0  0  0  0  0  0  0  0  0  0
  -27.8843   -0.9532   31.1862 C   0  0  0  0  0  0  0  0  0  0  0  0
  -24.3655   -1.1134   30.0483 C   0  0  0  0  0  0  0  0  0  0  0  0
  -23.6925    0.1188   29.9185 C   0  0  0  0  0  0  0  0  0  0  0  0
  -23.1776    0.5817   28.7884 C   0  0  0  0  0  0  0  0  0  0  0  0
  -23.0256    1.9043   28.3707 C   0  0  0  0  0  0  0  0  0  0  0  0
  -24.0281    2.3124   27.6835 C   0  0  0  0  0  0  0  0  0  0  0  0
  -24.4066    3.6871   27.7228 C   0  0  0  0  0  0  0  0  0  0  0  0
  -24.5544    1.5249   26.6536 C   0  0  0  0  0  0  0  0  0  0  0  0
  -25.6533    1.8690   26.1232 C   0  0  0  0  0  0  0  0  0  0  0  0
  -25.5559    4.0930   26.9957 C   0  0  0  0  0  0  0  0  0  0  0  0
  -26.1712    3.1721   26.1391 C   0  0  0  0  0  0  0  0  0  0  0  0
  4  7  1  0
  7  8  1  0
  8  9  1  0
  9 10  2  3
 10 11  1  0
 11 12  2  0
 12 15  1  0
 15 16  2  0
 16 14  1  0
 14 13  2  0
 13 11  1  0
  1  2  2  0
  2  6  1  0
  6  5  2  0
  5  4  1  0
  4  3  2  0
  3  1  1  0
M  END

$$$$
