No_2261-gen_results/8p0m/2024-11-27-11-27-31/
     RDKit          3D

 20 21  0  0  0  0  0  0  0  0999 V2000
  -28.1229   -1.3353   28.4874 O   0  0  0  0  0  0  0  0  0  0  0  0
  -27.4806   -0.4044   28.7094 C   0  0  0  0  0  0  0  0  0  0  0  0
  -26.3804   -0.0867   27.9394 C   0  0  0  0  0  0  0  0  0  0  0  0
  -27.8993    0.6459   29.6321 N   0  0  0  0  0  0  0  0  0  0  0  0
  -25.1243   -0.5319   28.3714 C   0  0  0  0  0  0  0  0  0  0  0  0
  -23.8577    0.0996   27.9068 C   0  0  0  0  0  0  0  0  0  0  0  0
  -23.9771    1.1251   26.9628 C   0  0  0  0  0  0  0  0  0  0  0  0
  -25.2275    1.5785   26.5411 C   0  0  0  0  0  0  0  0  0  0  0  0
  -26.3407    1.0664   27.0542 C   0  0  0  0  0  0  0  0  0  0  0  0
  -29.0613    0.3653   30.4297 C   0  0  0  0  0  0  0  0  0  0  0  0
  -22.5000    1.8846   26.4968 Cl  0  0  0  0  0  0  0  0  0  0  0  0
  -27.1507    1.7765   29.9091 C   0  0  0  0  0  0  0  0  0  0  0  0
  -26.7771    1.8499   31.3910 C   0  0  0  0  0  0  0  0  0  0  0  0
  -27.9349    2.0966   32.1616 C   0  0  0  0  0  0  0  0  0  0  0  0
  -28.9754    2.0345   31.6618 C   0  0  0  0  0  0  0  0  0  0  0  0
  -29.3884    0.8748   31.5498 C   0  0  0  0  0  0  0  0  0  0  0  0
  -25.4161    1.7475   31.7642 C   0  0  0  0  0  0  0  0  0  0  0  0
  -24.7733    1.0403   31.1384 F   0  0  0  0  0  0  0  0  0  0  0  0
  -24.8631    3.0484   31.7028 F   0  0  0  0  0  0  0  0  0  0  0  0
  -25.3754    1.3321   33.0661 F   0  0  0  0  0  0  0  0  0  0  0  0
  1  2  2  0
  2  3  1  0
  2  4  1  0
  4 10  1  0
  7 11  1  0
  4 12  1  0
 12 13  1  0
 13 14  1  0
 14 15  2  0
 10 16  2  0
 15 16  1  0
 13 17  1  0
 17 18  1  0
 17 19  1  0
 17 20  1  0
  3  5  2  0
  5  6  1  0
  6  7  2  0
  7  8  1  0
  8  9  2  0
  9  3  1  0
M  END

$$$$
