No_2278-gen_results/8p0m/2024-11-27-11-27-31/
     RDKit          3D

 35 38  0  0  0  0  0  0  0  0999 V2000
  -28.1229   -1.3353   28.4874 O   0  0  0  0  0  0  0  0  0  0  0  0
  -28.5208   -0.4363   29.0779 C   0  0  0  0  0  0  0  0  0  0  0  0
  -28.5894    0.5916   28.9464 C   0  0  0  0  0  0  0  0  0  0  0  0
  -28.7866   -0.8872   30.4874 N   0  0  0  0  0  0  0  0  0  0  0  0
  -27.7841    1.2822   27.9869 C   0  0  0  0  0  0  0  0  0  0  0  0
  -26.4272    1.0397   27.9945 C   0  0  0  0  0  0  0  0  0  0  0  0
  -25.5484    1.1428   26.9397 C   0  0  0  0  0  0  0  0  0  0  0  0
  -25.8503    1.7838   25.7769 C   0  0  0  0  0  0  0  0  0  0  0  0
  -27.2137    2.1377   25.6563 C   0  0  0  0  0  0  0  0  0  0  0  0
  -28.1100    1.8665   26.6819 C   0  0  0  0  0  0  0  0  0  0  0  0
  -28.7066   -2.3114   30.9474 C   0  0  0  0  0  0  0  0  0  0  0  0
  -29.3237    0.0003   31.4831 C   0  0  0  0  0  0  0  0  0  0  0  0
  -29.7425    0.9892   30.9842 C   0  0  0  0  0  0  0  0  0  0  0  0
  -29.1720    1.6660   29.8382 C   0  0  0  0  0  0  0  0  0  0  0  0
  -29.3647   -3.3448   30.3377 C   0  0  0  0  0  0  0  0  0  0  0  0
  -30.6021   -3.1967   30.1351 C   0  0  0  0  0  0  0  0  0  0  0  0
  -31.3369   -4.3015   29.5041 C   0  0  0  0  0  0  0  0  0  0  0  0
  -30.6358   -5.5084   29.2718 C   0  0  0  0  0  0  0  0  0  0  0  0
  -29.2882   -5.5835   29.5977 C   0  0  0  0  0  0  0  0  0  0  0  0
  -28.6007   -4.5533   30.2151 C   0  0  0  0  0  0  0  0  0  0  0  0
  -29.5072    2.2136   26.4627 C   0  0  0  0  0  0  0  0  0  0  0  0
  -30.4749    1.3803   26.6997 C   0  0  0  0  0  0  0  0  0  0  0  0
  -31.7999    1.7146   26.6163 C   0  0  0  0  0  0  0  0  0  0  0  0
  -32.1085    2.9815   26.2068 C   0  0  0  0  0  0  0  0  0  0  0  0
  -29.8276    3.5597   26.1212 C   0  0  0  0  0  0  0  0  0  0  0  0
  -31.1297    3.9610   25.9439 C   0  0  0  0  0  0  0  0  0  0  0  0
  -32.9307    0.8056   26.9043 C   0  0  0  0  0  0  0  0  0  0  0  0
  -33.2353    0.6387   28.0554 F   0  0  0  0  0  0  0  0  0  0  0  0
  -34.0178    1.1936   26.1809 F   0  0  0  0  0  0  0  0  0  0  0  0
  -32.5332   -0.4012   26.3446 F   0  0  0  0  0  0  0  0  0  0  0  0
  -31.2941   -6.6232   28.6668 C   0  0  0  0  0  0  0  0  0  0  0  0
  -31.7496   -6.7005   27.3968 C   0  0  0  0  0  0  0  0  0  0  0  0
  -32.2136   -7.8484   26.8244 C   0  0  0  0  0  0  0  0  0  0  0  0
  -31.2171   -7.9648   29.1693 C   0  0  0  0  0  0  0  0  0  0  0  0
  -31.6842   -9.1242   28.7251 C   0  0  0  0  0  0  0  0  0  0  0  0
  1  2  2  0
  2  3  1  0
  2  4  1  0
  3  5  1  0
  4 11  1  0
  4 12  1  0
  3 14  1  0
 13 14  1  0
 11 15  1  0
 10 21  1  0
 23 27  1  0
 27 28  1  0
 27 29  1  0
 27 30  1  0
 18 31  1  0
 31 32  1  0
 32 33  2  0
 31 34  1  0
 34 35  2  0
 13 12  1  0
 21 22  2  0
 22 23  1  0
 23 24  2  0
 24 26  1  0
 26 25  2  0
 25 21  1  0
  5  6  2  0
  6  7  1  0
  7  8  2  0
  8  9  1  0
  9 10  2  0
 10  5  1  0
 15 16  2  0
 16 17  1  0
 17 18  2  0
 18 19  1  0
 19 20  2  0
 20 15  1  0
M  END

$$$$
