No_232-gen_results/8p0m/2024-11-27-11-27-31/
     RDKit          3D

 21 23  0  0  0  0  0  0  0  0999 V2000
  -28.0162   -0.8135   28.8779 C   0  0  0  0  0  0  0  0  0  0  0  0
  -27.0636   -0.1189   28.6079 C   0  0  0  0  0  0  0  0  0  0  0  0
  -25.7647   -0.3897   29.0360 C   0  0  0  0  0  0  0  0  0  0  0  0
  -25.5296   -1.5302   29.9014 C   0  0  0  0  0  0  0  0  0  0  0  0
  -26.6888   -2.2893   30.1810 C   0  0  0  0  0  0  0  0  0  0  0  0
  -27.8727   -1.9508   29.7373 C   0  0  0  0  0  0  0  0  0  0  0  0
  -24.7078    0.5670   28.7015 C   0  0  0  0  0  0  0  0  0  0  0  0
  -23.4620    0.2939   29.1741 C   0  0  0  0  0  0  0  0  0  0  0  0
  -22.3635    1.1330   28.8239 C   0  0  0  0  0  0  0  0  0  0  0  0
  -22.5249    2.1143   27.8027 C   0  0  0  0  0  0  0  0  0  0  0  0
  -24.7770    1.4879   27.6943 C   0  0  0  0  0  0  0  0  0  0  0  0
  -23.7337    2.2549   27.2602 C   0  0  0  0  0  0  0  0  0  0  0  0
  -28.9575   -2.7086   30.0979 O   0  0  0  0  0  0  0  0  0  0  0  0
  -28.7989   -3.9564   30.6436 C   0  0  0  0  0  0  0  0  0  0  0  0
  -28.8324   -4.9670   29.8567 C   0  0  0  0  0  0  0  0  0  0  0  0
  -30.1729   -5.0749   29.3672 C   0  0  0  0  0  0  0  0  0  0  0  0
  -31.0449   -4.7027   29.8043 C   0  0  0  0  0  0  0  0  0  0  0  0
  -32.3476   -4.8791   29.2041 C   0  0  0  0  0  0  0  0  0  0  0  0
  -32.4165   -5.6512   28.0112 C   0  0  0  0  0  0  0  0  0  0  0  0
  -31.2705   -6.2030   27.4902 C   0  0  0  0  0  0  0  0  0  0  0  0
  -30.1441   -5.9645   28.1046 C   0  0  0  0  0  0  0  0  0  0  0  0
  3  7  1  0
  6 13  1  0
 13 14  1  0
 14 15  1  0
 15 16  1  0
  7  8  2  0
  8  9  1  0
  9 10  2  0
 10 12  1  0
 12 11  2  0
 11  7  1  0
  1  2  2  0
  2  3  1  0
  3  4  2  0
  4  5  1  0
  5  6  2  0
  6  1  1  0
 16 17  2  0
 17 18  1  0
 18 19  2  0
 19 20  1  0
 20 21  2  0
 21 16  1  0
M  END

$$$$
