No_2064-gen_results/8p0m/2024-11-27-11-27-31/
     RDKit          3D

  7  7  0  0  0  0  0  0  0  0999 V2000
  -28.1146   -0.6256   29.0813 Br  0  0  0  0  0  0  0  0  0  0  0  0
  -27.4917    0.8142   29.3550 C   0  0  0  0  0  0  0  0  0  0  0  0
  -27.5451    1.4114   30.5533 C   0  0  0  0  0  0  0  0  0  0  0  0
  -26.8382    2.5333   30.8279 C   0  0  0  0  0  0  0  0  0  0  0  0
  -26.0717    3.1996   29.7953 C   0  0  0  0  0  0  0  0  0  0  0  0
  -25.9632    2.5550   28.5976 C   0  0  0  0  0  0  0  0  0  0  0  0
  -26.6254    1.4128   28.4312 C   0  0  0  0  0  0  0  0  0  0  0  0
  1  2  1  0
  2  3  2  0
  3  4  1  0
  4  5  2  0
  5  6  1  0
  6  7  2  0
  7  2  1  0
M  END

$$$$
