No_2592-gen_results/8p0m/2024-11-27-11-27-31/
     RDKit          3D

 23 25  0  0  0  0  0  0  0  0999 V2000
  -28.0162   -0.8135   28.8779 C   0  0  0  0  0  0  0  0  0  0  0  0
  -27.0636   -0.1189   28.6079 C   0  0  0  0  0  0  0  0  0  0  0  0
  -27.0010    0.6913   27.4910 C   0  0  0  0  0  0  0  0  0  0  0  0
  -25.8548    1.4825   27.0830 C   0  0  0  0  0  0  0  0  0  0  0  0
  -24.6901    1.4526   27.8807 C   0  0  0  0  0  0  0  0  0  0  0  0
  -24.7379    0.6010   29.0416 C   0  0  0  0  0  0  0  0  0  0  0  0
  -25.8234   -0.1688   29.3887 C   0  0  0  0  0  0  0  0  0  0  0  0
  -28.7350   -0.4637   30.1419 C   0  0  0  0  0  0  0  0  0  0  0  0
  -28.7831    0.6118   30.5175 C   0  0  0  0  0  0  0  0  0  0  0  0
  -29.0820    1.2849   31.2225 C   0  0  0  0  0  0  0  0  0  0  0  0
  -29.6890    0.9613   32.4897 C   0  0  0  0  0  0  0  0  0  0  0  0
  -29.8578   -0.5109   32.4566 C   0  0  0  0  0  0  0  0  0  0  0  0
  -29.2690   -1.3574   31.2432 C   0  0  0  0  0  0  0  0  0  0  0  0
  -23.4937    2.1901   27.5558 C   0  0  0  0  0  0  0  0  0  0  0  0
  -22.3412    1.8478   28.1689 N   0  0  0  0  0  0  0  0  0  0  0  0
  -23.3674    2.7454   26.3875 O   0  0  0  0  0  0  0  0  0  0  0  0
  -28.1623    0.8109   26.6003 C   0  0  0  0  0  0  0  0  0  0  0  0
  -28.1129    0.6899   25.3629 N   0  0  0  0  0  0  0  0  0  0  0  0
  -29.3920    0.9892   27.1341 N   0  0  0  0  0  0  0  0  0  0  0  0
  -30.3554    1.0681   26.2481 C   0  0  0  0  0  0  0  0  0  0  0  0
  -29.2509    0.7760   24.7536 C   0  0  0  0  0  0  0  0  0  0  0  0
  -30.6331    1.0204   25.1138 C   0  0  0  0  0  0  0  0  0  0  0  0
  -31.6475    1.0858   24.2697 C   0  0  0  0  0  0  0  0  0  0  0  0
  1  2  1  0
  1  8  1  0
  5 14  1  0
 14 15  1  0
 14 16  2  0
  3 17  1  0
 17 18  2  0
 17 19  1  0
 19 20  2  0
 18 21  1  0
 20 21  1  0
 20 22  1  0
 22 23  1  0
  2  3  1  0
  3  4  2  0
  4  5  1  0
  5  6  2  0
  6  7  1  0
  7  2  2  0
  8  9  2  0
  9 10  1  0
 10 11  2  0
 11 12  1  0
 12 13  2  0
 13  8  1  0
M  END

$$$$
