No_281-gen_results/8p0m/2024-11-27-11-27-31/
     RDKit          3D

 15 15  0  0  0  0  0  0  0  0999 V2000
  -28.0162   -0.8135   28.8779 C   0  0  0  0  0  0  0  0  0  0  0  0
  -28.4690   -0.7850   29.8287 C   0  0  0  0  0  0  0  0  0  0  0  0
  -28.1816    0.4277   28.1134 C   0  0  0  0  0  0  0  0  0  0  0  0
  -27.2060    0.7105   27.3893 O   0  0  0  0  0  0  0  0  0  0  0  0
  -29.3068    1.0856   28.0074 N   0  0  0  0  0  0  0  0  0  0  0  0
  -29.5130    2.1773   27.2282 C   0  0  0  0  0  0  0  0  0  0  0  0
  -29.8769   -0.6216   29.9180 N   0  0  0  0  0  0  0  0  0  0  0  0
  -30.4960   -0.7455   31.0221 C   0  0  0  0  0  0  0  0  0  0  0  0
  -31.8854   -0.5792   31.0942 C   0  0  0  0  0  0  0  0  0  0  0  0
  -29.8394   -1.1560   32.3213 C   0  0  0  0  0  0  0  0  0  0  0  0
  -28.4558   -1.3786   32.3133 C   0  0  0  0  0  0  0  0  0  0  0  0
  -27.7442   -1.3009   31.0929 C   0  0  0  0  0  0  0  0  0  0  0  0
  -32.4046    0.1977   31.9201 C   0  0  0  0  0  0  0  0  0  0  0  0
  -33.8659    0.4516   31.9665 C   0  0  0  0  0  0  0  0  0  0  0  0
  -34.5755   -0.2022   30.9666 C   0  0  0  0  0  0  0  0  0  0  0  0
  1  2  1  0
  1  3  1  0
  3  4  2  0
  3  5  1  0
  5  6  1  0
  9 13  1  0
 13 14  2  3
 14 15  1  0
  9  8  1  0
  2  7  2  0
  7  8  1  0
  8 10  2  0
 10 11  1  0
 11 12  2  0
 12  2  1  0
M  END

$$$$
