No_2623-gen_results/8p0m/2024-11-27-11-27-31/
     RDKit          3D

 15 16  0  0  0  0  0  0  0  0999 V2000
  -28.1229   -1.3353   28.4874 O   0  0  0  0  0  0  0  0  0  0  0  0
  -27.4806   -0.4044   28.7094 C   0  0  0  0  0  0  0  0  0  0  0  0
  -26.3804   -0.0867   27.9394 C   0  0  0  0  0  0  0  0  0  0  0  0
  -27.6664    0.4468   29.8988 N   0  0  0  0  0  0  0  0  0  0  0  0
  -26.4086    0.8567   26.8802 C   0  0  0  0  0  0  0  0  0  0  0  0
  -25.0824   -0.6970   28.1699 C   0  0  0  0  0  0  0  0  0  0  0  0
  -25.2842    1.0488   26.0470 C   0  0  0  0  0  0  0  0  0  0  0  0
  -23.8947   -0.3309   27.4777 C   0  0  0  0  0  0  0  0  0  0  0  0
  -24.0554    0.5635   26.3806 C   0  0  0  0  0  0  0  0  0  0  0  0
  -26.9098    1.5775   30.3258 C   0  0  0  0  0  0  0  0  0  0  0  0
  -27.2008    2.0167   31.4344 C   0  0  0  0  0  0  0  0  0  0  0  0
  -28.8963    0.1988   30.7515 C   0  0  0  0  0  0  0  0  0  0  0  0
  -28.9651    0.7554   31.9783 C   0  0  0  0  0  0  0  0  0  0  0  0
  -28.1520    1.8221   32.3555 C   0  0  0  0  0  0  0  0  0  0  0  0
  -27.8854    1.4633   26.3610 Cl  0  0  0  0  0  0  0  0  0  0  0  0
  1  2  2  0
  2  3  1  0
  2  4  1  0
  4 10  1  0
  4 12  1  0
 11 14  1  0
 13 14  1  0
  5 15  1  0
 10 11  1  0
 13 12  1  0
  3  5  2  0
  5  7  1  0
  7  9  2  0
  9  8  1  0
  8  6  2  0
  6  3  1  0
M  END

$$$$
