No_2674-gen_results/8p0m/2024-11-27-11-27-31/
     RDKit          3D

 29 31  0  0  0  0  0  0  0  0999 V2000
  -28.0162   -0.8135   28.8779 C   0  0  0  0  0  0  0  0  0  0  0  0
  -27.0636   -0.1190   28.6079 C   0  0  0  0  0  0  0  0  0  0  0  0
  -25.7923   -0.4302   29.0761 C   0  0  0  0  0  0  0  0  0  0  0  0
  -24.5456    0.3494   28.8225 C   0  0  0  0  0  0  0  0  0  0  0  0
  -24.6586    1.4196   27.8878 C   0  0  0  0  0  0  0  0  0  0  0  0
  -25.9471    1.6811   27.3792 C   0  0  0  0  0  0  0  0  0  0  0  0
  -27.0439    0.9739   27.6871 C   0  0  0  0  0  0  0  0  0  0  0  0
  -29.2096   -0.0265   29.3432 C   0  0  0  0  0  0  0  0  0  0  0  0
  -30.1729   -0.6623   30.0345 C   0  0  0  0  0  0  0  0  0  0  0  0
  -31.3695   -0.0247   30.3181 C   0  0  0  0  0  0  0  0  0  0  0  0
  -31.4872    1.3257   29.9006 C   0  0  0  0  0  0  0  0  0  0  0  0
  -30.5265    1.9301   29.1892 C   0  0  0  0  0  0  0  0  0  0  0  0
  -29.3667    1.2732   28.8517 C   0  0  0  0  0  0  0  0  0  0  0  0
  -28.2044    1.8262   28.0848 C   0  0  0  0  0  0  0  0  0  0  0  0
  -23.4191    2.1055   27.4851 C   0  0  0  0  0  0  0  0  0  0  0  0
  -23.2852    3.3141   27.7215 N   0  0  0  0  0  0  0  0  0  0  0  0
  -22.4371    1.4882   26.9218 O   0  0  0  0  0  0  0  0  0  0  0  0
  -25.4438   -1.6126   29.9485 C   0  0  0  0  0  0  0  0  0  0  0  0
  -25.9560   -1.5378   31.0340 F   0  0  0  0  0  0  0  0  0  0  0  0
  -24.1865   -1.8424   30.1063 F   0  0  0  0  0  0  0  0  0  0  0  0
  -25.9208   -2.7182   29.2166 F   0  0  0  0  0  0  0  0  0  0  0  0
  -28.4097    3.1682   27.4808 C   0  0  0  0  0  0  0  0  0  0  0  0
  -30.0564   -1.9298   30.4427 O   0  0  0  0  0  0  0  0  0  0  0  0
  -30.7871   -2.4996   31.3692 C   0  0  0  0  0  0  0  0  0  0  0  0
  -30.2786   -2.5926   32.6061 C   0  0  0  0  0  0  0  0  0  0  0  0
  -29.1761   -2.0386   32.8047 F   0  0  0  0  0  0  0  0  0  0  0  0
  -31.0501   -2.0216   33.5535 F   0  0  0  0  0  0  0  0  0  0  0  0
  -30.1230   -3.9045   32.9466 F   0  0  0  0  0  0  0  0  0  0  0  0
  -31.8390   -3.0331   30.9723 O   0  0  0  0  0  0  0  0  0  0  0  0
  5 15  1  0
 15 16  1  0
 15 17  2  0
  3 18  1  0
 18 19  1  0
 18 20  1  0
 18 21  1  0
 14 22  1  0
  9 23  1  0
 23 24  1  0
 24 25  1  0
 25 26  1  0
 25 27  1  0
 25 28  1  0
 24 29  2  0
  2  3  1  0
  3  4  2  0
  4  5  1  0
  5  6  2  0
  6  7  1  0
  8  9  2  0
  9 10  1  0
 10 11  2  0
 11 12  1  0
 12 13  2  0
  1  2  2  0
  2  7  1  0
  7 14  2  0
 14 13  1  0
 13  8  1  0
  8  1  1  0
M  END

$$$$
