No_2116-gen_results/8p0m/2024-11-27-11-27-31/
     RDKit          3D

 14 14  0  0  0  0  0  0  0  0999 V2000
  -28.0162   -0.8135   28.8779 C   0  0  0  0  0  0  0  0  0  0  0  0
  -27.0636   -0.1190   28.6079 C   0  0  0  0  0  0  0  0  0  0  0  0
  -26.9287    1.1713   29.0083 C   0  0  0  0  0  0  0  0  0  0  0  0
  -25.7702    2.0341   28.6884 C   0  0  0  0  0  0  0  0  0  0  0  0
  -24.7141    1.4431   27.9188 C   0  0  0  0  0  0  0  0  0  0  0  0
  -24.8590    0.0783   27.5836 C   0  0  0  0  0  0  0  0  0  0  0  0
  -25.9647   -0.6606   27.9164 C   0  0  0  0  0  0  0  0  0  0  0  0
  -29.0591   -0.5087   28.2818 F   0  0  0  0  0  0  0  0  0  0  0  0
  -28.3369   -0.8098   30.2795 F   0  0  0  0  0  0  0  0  0  0  0  0
  -23.5401    2.1450   27.5601 C   0  0  0  0  0  0  0  0  0  0  0  0
  -23.3669    2.7207   26.6621 F   0  0  0  0  0  0  0  0  0  0  0  0
  -22.4000    1.1211   27.5887 F   0  0  0  0  0  0  0  0  0  0  0  0
  -23.1165    2.9023   28.7143 F   0  0  0  0  0  0  0  0  0  0  0  0
  -27.7800   -2.1255   28.7980 F   0  0  0  0  0  0  0  0  0  0  0  0
  1  2  1  0
  1  8  1  0
  1  9  1  0
  5 10  1  0
 10 11  1  0
 10 12  1  0
 10 13  1  0
  1 14  1  0
  2  3  2  0
  3  4  1  0
  4  5  2  0
  5  6  1  0
  6  7  2  0
  7  2  1  0
M  END

$$$$
