No_202-gen_results/8p0m/2024-11-27-11-27-31/
     RDKit          3D

 21 22  0  0  0  0  0  0  0  0999 V2000
  -28.0162   -0.8135   28.8779 C   0  0  0  0  0  0  0  0  0  0  0  0
  -27.0636   -0.1189   28.6079 C   0  0  0  0  0  0  0  0  0  0  0  0
  -27.0010    0.6913   27.4910 C   0  0  0  0  0  0  0  0  0  0  0  0
  -28.1373    0.7363   26.6350 C   0  0  0  0  0  0  0  0  0  0  0  0
  -29.2360    0.0765   27.0690 C   0  0  0  0  0  0  0  0  0  0  0  0
  -29.2177   -0.6429   28.1747 C   0  0  0  0  0  0  0  0  0  0  0  0
  -30.4152    0.1590   26.1820 C   0  0  0  0  0  0  0  0  0  0  0  0
  -31.3727   -0.5052   26.4854 N   0  0  0  0  0  0  0  0  0  0  0  0
  -30.6224    1.5695   25.0741 Br  0  0  0  0  0  0  0  0  0  0  0  0
  -25.7089   -0.2263   29.4257 C   0  0  0  0  0  0  0  0  0  0  0  0
  -25.6027   -0.3196   30.4883 C   0  0  0  0  0  0  0  0  0  0  0  0
  -24.3013   -0.3988   31.2325 C   0  0  0  0  0  0  0  0  0  0  0  0
  -23.1218   -0.3185   30.4718 C   0  0  0  0  0  0  0  0  0  0  0  0
  -23.2546   -0.1404   29.1272 C   0  0  0  0  0  0  0  0  0  0  0  0
  -24.5414   -0.1111   28.4673 C   0  0  0  0  0  0  0  0  0  0  0  0
  -32.4492   -0.4801   26.3544 C   0  0  0  0  0  0  0  0  0  0  0  0
  -33.4010   -0.5949   26.7152 C   0  0  0  0  0  0  0  0  0  0  0  0
  -34.7578   -0.4730   26.1687 C   0  0  0  0  0  0  0  0  0  0  0  0
  -35.9682   -0.7023   26.7703 C   0  0  0  0  0  0  0  0  0  0  0  0
  -35.9365   -1.0283   28.1376 C   0  0  0  0  0  0  0  0  0  0  0  0
  -34.8374   -1.1872   28.8418 C   0  0  0  0  0  0  0  0  0  0  0  0
  5  7  1  0
  7  8  1  0
  7  9  1  0
  2 10  1  0
  8 16  2  3
 16 17  1  0
 17 18  2  3
 18 19  1  0
 19 20  2  3
 20 21  1  0
  1  2  2  0
  2  3  1  0
  3  4  2  0
  4  5  1  0
  5  6  2  0
  6  1  1  0
 10 11  2  0
 11 12  1  0
 12 13  2  0
 13 14  1  0
 14 15  2  0
 15 10  1  0
M  END

$$$$
