No_2606-gen_results/8p0m/2024-11-27-11-27-31/
     RDKit          3D

 13 13  0  0  0  0  0  0  0  0999 V2000
  -28.0162   -0.8135   28.8779 C   0  0  0  0  0  0  0  0  0  0  0  0
  -28.4690   -0.7850   29.8287 C   0  0  0  0  0  0  0  0  0  0  0  0
  -27.1356    0.2359   28.5352 C   0  0  0  0  0  0  0  0  0  0  0  0
  -26.8745    1.2825   29.3982 C   0  0  0  0  0  0  0  0  0  0  0  0
  -28.3613    0.1987   30.9244 C   0  0  0  0  0  0  0  0  0  0  0  0
  -27.5277    1.2234   30.6356 C   0  0  0  0  0  0  0  0  0  0  0  0
  -26.4533    0.0749   27.2390 C   0  0  0  0  0  0  0  0  0  0  0  0
  -25.4024   -0.5825   27.2838 F   0  0  0  0  0  0  0  0  0  0  0  0
  -25.9032    1.3653   26.8200 F   0  0  0  0  0  0  0  0  0  0  0  0
  -27.2037    0.0187   26.1433 F   0  0  0  0  0  0  0  0  0  0  0  0
  -29.4117   -1.9950   30.3471 C   0  0  0  0  0  0  0  0  0  0  0  0
  -30.4543   -1.9344   30.0195 O   0  0  0  0  0  0  0  0  0  0  0  0
  -28.8803   -2.9840   31.0455 O   0  0  0  0  0  0  0  0  0  0  0  0
  3  7  1  0
  7  8  1  0
  7  9  1  0
  7 10  1  0
  2 11  1  0
 11 12  2  0
 11 13  1  0
  1  2  2  0
  2  5  1  0
  5  6  2  0
  6  4  1  0
  4  3  2  0
  3  1  1  0
M  END

$$$$
