No_2352-gen_results/8p0m/2024-11-27-11-27-31/
     RDKit          3D

 17 18  0  0  0  0  0  0  0  0999 V2000
  -28.0162   -0.8135   28.8779 C   0  0  0  0  0  0  0  0  0  0  0  0
  -28.4690   -0.7850   29.8287 C   0  0  0  0  0  0  0  0  0  0  0  0
  -27.1729    0.2095   28.5982 N   0  0  0  0  0  0  0  0  0  0  0  0
  -26.7051    0.5624   27.4132 C   0  0  0  0  0  0  0  0  0  0  0  0
  -25.7049    1.5574   27.3411 C   0  0  0  0  0  0  0  0  0  0  0  0
  -24.5606    1.3741   27.7155 C   0  0  0  0  0  0  0  0  0  0  0  0
  -23.4179    2.1313   27.3257 C   0  0  0  0  0  0  0  0  0  0  0  0
  -22.1347    1.8747   27.9074 C   0  0  0  0  0  0  0  0  0  0  0  0
  -24.1807    0.3998   28.8265 C   0  0  0  0  0  0  0  0  0  0  0  0
  -22.9341    0.2270   29.3555 C   0  0  0  0  0  0  0  0  0  0  0  0
  -21.8873    0.9402   28.8049 C   0  0  0  0  0  0  0  0  0  0  0  0
  -29.5678   -1.6232   30.2661 C   0  0  0  0  0  0  0  0  0  0  0  0
  -28.0121    0.0877   31.0387 C   0  0  0  0  0  0  0  0  0  0  0  0
  -27.1028    1.0341   30.8160 C   0  0  0  0  0  0  0  0  0  0  0  0
  -26.7396    1.2109   29.5293 C   0  0  0  0  0  0  0  0  0  0  0  0
  -30.5795   -1.6447   29.9474 O   0  0  0  0  0  0  0  0  0  0  0  0
  -29.1615   -2.7937   31.1667 N   0  0  0  0  0  0  0  0  0  0  0  0
  1  2  1  0
  1  3  1  0
  3  4  1  0
  4  5  2  3
  5  6  1  0
  2 12  1  0
  2 13  1  0
  3 15  1  0
 14 15  1  0
 12 16  2  0
 12 17  1  0
 13 14  1  0
  6  7  2  0
  7  8  1  0
  8 11  2  0
 11 10  1  0
 10  9  2  0
  9  6  1  0
M  END

$$$$
