No_2371-gen_results/8p0m/2024-11-27-11-27-31/
     RDKit          3D

 16 17  0  0  0  0  0  0  0  0999 V2000
  -28.1229   -1.3353   28.4874 O   0  0  0  0  0  0  0  0  0  0  0  0
  -27.0637   -0.8242   28.8687 C   0  0  0  0  0  0  0  0  0  0  0  0
  -26.9592    0.0926   29.7582 C   0  0  0  0  0  0  0  0  0  0  0  0
  -25.8012   -1.3566   28.3971 N   0  0  0  0  0  0  0  0  0  0  0  0
  -25.7368    0.7239   30.2099 C   0  0  0  0  0  0  0  0  0  0  0  0
  -24.5680   -0.8667   28.7917 C   0  0  0  0  0  0  0  0  0  0  0  0
  -24.4971    0.1706   29.6778 C   0  0  0  0  0  0  0  0  0  0  0  0
  -23.2207    0.7229   30.0345 C   0  0  0  0  0  0  0  0  0  0  0  0
  -22.1463    0.0896   29.6997 O   0  0  0  0  0  0  0  0  0  0  0  0
  -23.1543    1.7570   30.8272 O   0  0  0  0  0  0  0  0  0  0  0  0
  -28.1952    0.6823   30.3605 C   0  0  0  0  0  0  0  0  0  0  0  0
  -28.8277    0.1647   31.2041 C   0  0  0  0  0  0  0  0  0  0  0  0
  -30.0606    0.7344   31.8239 C   0  0  0  0  0  0  0  0  0  0  0  0
  -30.4541    1.9777   31.3304 C   0  0  0  0  0  0  0  0  0  0  0  0
  -29.7028    2.5700   30.3374 C   0  0  0  0  0  0  0  0  0  0  0  0
  -28.5225    2.0179   29.8494 C   0  0  0  0  0  0  0  0  0  0  0  0
  1  2  2  0
  2  3  1  0
  2  4  1  0
  4  6  1  0
  5  7  1  0
  7  8  1  0
  8  9  2  0
  8 10  1  0
  3 11  1  0
  3  5  1  0
  7  6  1  0
 11 12  2  0
 12 13  1  0
 13 14  2  0
 14 15  1  0
 15 16  2  0
 16 11  1  0
M  END

$$$$
