No_2316-gen_results/8p0m/2024-11-27-11-27-31/
     RDKit          3D

 18 19  0  0  0  0  0  0  0  0999 V2000
  -28.0162   -0.8135   28.8779 C   0  0  0  0  0  0  0  0  0  0  0  0
  -28.4690   -0.7850   29.8287 C   0  0  0  0  0  0  0  0  0  0  0  0
  -26.5042   -0.7777   28.8766 C   0  0  0  0  0  0  0  0  0  0  0  0
  -25.8103   -0.8531   30.1028 C   0  0  0  0  0  0  0  0  0  0  0  0
  -27.9906   -0.8916   31.2257 C   0  0  0  0  0  0  0  0  0  0  0  0
  -26.6042   -0.8676   31.2652 C   0  0  0  0  0  0  0  0  0  0  0  0
  -29.9385   -0.8194   29.8358 O   0  0  0  0  0  0  0  0  0  0  0  0
  -30.6978   -1.6543   30.3501 C   0  0  0  0  0  0  0  0  0  0  0  0
  -24.5230   -0.7894   30.1317 F   0  0  0  0  0  0  0  0  0  0  0  0
  -31.7308   -1.9892   29.5677 C   0  0  0  0  0  0  0  0  0  0  0  0
  -32.5704   -3.1209   29.9267 C   0  0  0  0  0  0  0  0  0  0  0  0
  -32.2997   -3.7630   31.1829 C   0  0  0  0  0  0  0  0  0  0  0  0
  -31.2306   -3.3820   31.9458 C   0  0  0  0  0  0  0  0  0  0  0  0
  -30.3685   -2.3994   31.5285 C   0  0  0  0  0  0  0  0  0  0  0  0
  -31.0063   -4.1194   33.2399 C   0  0  0  0  0  0  0  0  0  0  0  0
  -30.2520   -3.6485   33.9018 F   0  0  0  0  0  0  0  0  0  0  0  0
  -32.1823   -4.1956   33.8745 F   0  0  0  0  0  0  0  0  0  0  0  0
  -30.5873   -5.3850   32.8778 F   0  0  0  0  0  0  0  0  0  0  0  0
  2  7  1  0
  7  8  1  0
  4  9  1  0
 13 15  1  0
 15 16  1  0
 15 17  1  0
 15 18  1  0
  8 10  2  0
 10 11  1  0
 11 12  2  0
 12 13  1  0
 13 14  2  0
 14  8  1  0
  1  2  2  0
  2  5  1  0
  5  6  2  0
  6  4  1  0
  4  3  2  0
  3  1  1  0
M  END

$$$$
