No_2853-gen_results/8p0m/2024-11-27-11-27-31/
     RDKit          3D

 16 17  0  0  0  0  0  0  0  0999 V2000
  -28.0162   -0.8135   28.8779 C   0  0  0  0  0  0  0  0  0  0  0  0
  -27.0636   -0.1190   28.6079 C   0  0  0  0  0  0  0  0  0  0  0  0
  -27.0010    0.6913   27.4910 C   0  0  0  0  0  0  0  0  0  0  0  0
  -28.1373    0.7363   26.6350 C   0  0  0  0  0  0  0  0  0  0  0  0
  -29.2360    0.0765   27.0690 C   0  0  0  0  0  0  0  0  0  0  0  0
  -29.2177   -0.6429   28.1747 C   0  0  0  0  0  0  0  0  0  0  0  0
  -30.3222    0.1455   26.3092 F   0  0  0  0  0  0  0  0  0  0  0  0
  -25.7269   -0.1942   29.4070 C   0  0  0  0  0  0  0  0  0  0  0  0
  -24.5580    0.0076   28.8586 C   0  0  0  0  0  0  0  0  0  0  0  0
  -23.3275   -0.0889   29.5808 C   0  0  0  0  0  0  0  0  0  0  0  0
  -23.3667   -0.5954   30.8373 C   0  0  0  0  0  0  0  0  0  0  0  0
  -24.5807   -0.8479   31.4723 C   0  0  0  0  0  0  0  0  0  0  0  0
  -25.7831   -0.7099   30.7392 C   0  0  0  0  0  0  0  0  0  0  0  0
  -22.1604    0.2188   28.9527 N   0  0  0  0  0  0  0  0  0  0  0  0
  -22.0212    1.3165   28.1016 C   0  0  0  0  0  0  0  0  0  0  0  0
  -21.0179    1.3470   27.1561 C   0  0  0  0  0  0  0  0  0  0  0  0
  5  7  1  0
  2  8  1  0
 10 14  1  0
 14 15  1  0
 15 16  2  0
  1  2  2  0
  2  3  1  0
  3  4  2  0
  4  5  1  0
  5  6  2  0
  6  1  1  0
  8  9  2  0
  9 10  1  0
 10 11  2  0
 11 12  1  0
 12 13  2  0
 13  8  1  0
M  END

$$$$
