No_2045-gen_results/8p0m/2024-11-27-11-27-31/
     RDKit          3D

  9  9  0  0  0  0  0  0  0  0999 V2000
  -28.0162   -0.8135   28.8779 C   0  0  0  0  0  0  0  0  0  0  0  0
  -28.4690   -0.7850   29.8287 C   0  0  0  0  0  0  0  0  0  0  0  0
  -28.7063   -0.5182   27.8769 F   0  0  0  0  0  0  0  0  0  0  0  0
  -26.6853   -0.0122   28.8635 C   0  0  0  0  0  0  0  0  0  0  0  0
  -25.5056   -0.6911   29.3013 C   0  0  0  0  0  0  0  0  0  0  0  0
  -29.9482   -1.1771   30.0774 Cl  0  0  0  0  0  0  0  0  0  0  0  0
  -25.7418   -1.7734   30.1842 C   0  0  0  0  0  0  0  0  0  0  0  0
  -26.8380   -2.4010   30.6377 C   0  0  0  0  0  0  0  0  0  0  0  0
  -28.0481   -1.9789   30.4668 C   0  0  0  0  0  0  0  0  0  0  0  0
  1  2  1  0
  1  3  1  0
  1  4  1  0
  4  5  1  0
  2  6  1  0
  5  7  2  0
  7  8  1  0
  2  9  1  0
  8  9  2  0
M  END

$$$$
