No_2218-gen_results/8p0m/2024-11-27-11-27-31/
     RDKit          3D

 19 21  0  0  0  0  0  0  0  0999 V2000
  -28.0162   -0.8135   28.8779 C   0  0  0  0  0  0  0  0  0  0  0  0
  -28.4690   -0.7850   29.8287 C   0  0  0  0  0  0  0  0  0  0  0  0
  -26.5455   -0.8762   28.8500 C   0  0  0  0  0  0  0  0  0  0  0  0
  -25.8041   -1.0324   30.0571 C   0  0  0  0  0  0  0  0  0  0  0  0
  -27.9437   -0.9869   31.2075 C   0  0  0  0  0  0  0  0  0  0  0  0
  -26.5825   -1.0386   31.2231 C   0  0  0  0  0  0  0  0  0  0  0  0
  -30.0606   -0.7371   29.9024 C   0  0  0  0  0  0  0  0  0  0  0  0
  -30.5524   -0.2769   29.0111 O   0  0  0  0  0  0  0  0  0  0  0  0
  -30.7429   -1.2889   30.9939 N   0  0  0  0  0  0  0  0  0  0  0  0
  -32.1712   -1.2600   30.9749 C   0  0  0  0  0  0  0  0  0  0  0  0
  -24.3688   -1.0881   30.0880 C   0  0  0  0  0  0  0  0  0  0  0  0
  -23.8695    0.0690   30.3704 F   0  0  0  0  0  0  0  0  0  0  0  0
  -23.8166   -1.4017   28.8824 F   0  0  0  0  0  0  0  0  0  0  0  0
  -23.8843   -1.9746   31.0178 F   0  0  0  0  0  0  0  0  0  0  0  0
  -32.7939   -1.8268   31.6550 C   0  0  0  0  0  0  0  0  0  0  0  0
  -32.1734   -2.6312   32.7865 C   0  0  0  0  0  0  0  0  0  0  0  0
  -30.7648   -2.7113   32.8409 C   0  0  0  0  0  0  0  0  0  0  0  0
  -30.0588   -2.1229   31.9027 C   0  0  0  0  0  0  0  0  0  0  0  0
  -28.6869   -2.0466   32.0521 N   0  0  0  0  0  0  0  0  0  0  0  0
  2  7  1  0
  7  8  2  0
  7  9  1  0
  9 10  1  0
  4 11  1  0
 11 12  1  0
 11 13  1  0
 11 14  1  0
 15 16  1  0
  9 18  1  0
 17 18  1  0
  5 19  1  0
 18 19  1  0
 10 15  1  0
 16 17  1  0
  1  2  2  0
  2  5  1  0
  5  6  2  0
  6  4  1  0
  4  3  2  0
  3  1  1  0
M  END

$$$$
