No_2148-gen_results/8p0m/2024-11-27-11-27-31/
     RDKit          3D

 18 19  0  0  0  0  0  0  0  0999 V2000
  -28.0162   -0.8135   28.8779 C   0  0  0  0  0  0  0  0  0  0  0  0
  -27.0636   -0.1190   28.6079 C   0  0  0  0  0  0  0  0  0  0  0  0
  -25.7923   -0.4302   29.0761 C   0  0  0  0  0  0  0  0  0  0  0  0
  -25.5756   -1.5654   29.9363 C   0  0  0  0  0  0  0  0  0  0  0  0
  -26.7354   -2.3004   30.2173 C   0  0  0  0  0  0  0  0  0  0  0  0
  -27.9184   -1.9537   29.7629 C   0  0  0  0  0  0  0  0  0  0  0  0
  -27.1463    1.2916   27.6407 Cl  0  0  0  0  0  0  0  0  0  0  0  0
  -29.0905   -2.5674   30.0883 O   0  0  0  0  0  0  0  0  0  0  0  0
  -29.0596   -3.8882   30.5032 C   0  0  0  0  0  0  0  0  0  0  0  0
  -30.1930   -4.6225   29.9214 C   0  0  0  0  0  0  0  0  0  0  0  0
  -31.3642   -4.2125   30.4325 C   0  0  0  0  0  0  0  0  0  0  0  0
  -32.1983   -3.9366   29.8227 C   0  0  0  0  0  0  0  0  0  0  0  0
  -33.5663   -3.4548   30.2223 C   0  0  0  0  0  0  0  0  0  0  0  0
  -34.5556   -2.9968   29.3772 C   0  0  0  0  0  0  0  0  0  0  0  0
  -34.3527   -2.8253   28.3259 C   0  0  0  0  0  0  0  0  0  0  0  0
  -33.1208   -3.1262   27.5761 C   0  0  0  0  0  0  0  0  0  0  0  0
  -32.0893   -3.6175   28.3699 C   0  0  0  0  0  0  0  0  0  0  0  0
  -31.7899   -5.3971   31.4694 C   0  0  0  0  0  0  0  0  0  0  0  0
  2  7  1  0
  6  8  1  0
  8  9  1  0
  9 10  1  0
 10 11  1  0
 11 18  1  0
 11 12  1  0
 12 13  2  0
 13 14  1  0
 14 15  2  0
 15 16  1  0
 16 17  2  0
 17 12  1  0
  1  2  2  0
  2  3  1  0
  3  4  2  0
  4  5  1  0
  5  6  2  0
  6  1  1  0
M  END

$$$$
