No_2951-gen_results/8p0m/2024-11-27-11-27-31/
     RDKit          3D

 18 19  0  0  0  0  0  0  0  0999 V2000
  -28.0162   -0.8135   28.8779 C   0  0  0  0  0  0  0  0  0  0  0  0
  -27.0636   -0.1189   28.6079 C   0  0  0  0  0  0  0  0  0  0  0  0
  -25.7923   -0.4302   29.0761 C   0  0  0  0  0  0  0  0  0  0  0  0
  -24.5456    0.3494   28.8225 C   0  0  0  0  0  0  0  0  0  0  0  0
  -24.6586    1.4196   27.8878 C   0  0  0  0  0  0  0  0  0  0  0  0
  -25.9471    1.6811   27.3792 C   0  0  0  0  0  0  0  0  0  0  0  0
  -27.0439    0.9739   27.6871 C   0  0  0  0  0  0  0  0  0  0  0  0
  -28.6643   -0.5274   30.1017 N   0  0  0  0  0  0  0  0  0  0  0  0
  -29.6153   -1.2473   30.6541 C   0  0  0  0  0  0  0  0  0  0  0  0
  -30.1339   -2.2836   30.0191 C   0  0  0  0  0  0  0  0  0  0  0  0
  -31.2485   -2.4120   29.5236 C   0  0  0  0  0  0  0  0  0  0  0  0
  -31.7644   -3.6033   28.8728 C   0  0  0  0  0  0  0  0  0  0  0  0
  -31.0426   -4.7975   29.0648 C   0  0  0  0  0  0  0  0  0  0  0  0
  -29.8074   -4.7576   29.7815 C   0  0  0  0  0  0  0  0  0  0  0  0
  -29.3420   -3.5897   30.3451 C   0  0  0  0  0  0  0  0  0  0  0  0
  -30.1028   -0.8581   31.7767 O   0  0  0  0  0  0  0  0  0  0  0  0
  -23.4470    2.1485   27.5901 C   0  0  0  0  0  0  0  0  0  0  0  0
  -22.2514    1.7208   28.0797 N   0  0  0  0  0  0  0  0  0  0  0  0
  1  2  1  0
  1  8  1  0
  8  9  1  0
  9 10  1  0
  9 16  2  0
  5 17  1  0
 17 18  2  0
  2  3  2  0
  3  4  1  0
  4  5  2  0
  5  6  1  0
  6  7  2  0
  7  2  1  0
 10 11  2  0
 11 12  1  0
 12 13  2  0
 13 14  1  0
 14 15  2  0
 15 10  1  0
M  END

$$$$
