No_2694-gen_results/8p0m/2024-11-27-11-27-31/
     RDKit          3D

 12 12  0  0  0  0  0  0  0  0999 V2000
  -27.9505   -0.5786   29.0402 P   0  0  0  0  0  0  0  0  0  0  0  0
  -27.2401    0.0613   28.4283 O   0  0  0  0  0  0  0  0  0  0  0  0
  -27.2444   -1.9817   29.3768 O   0  0  0  0  0  0  0  0  0  0  0  0
  -28.1843   -0.0275   30.5202 O   0  0  0  0  0  0  0  0  0  0  0  0
  -29.3988   -0.9154   28.6487 O   0  0  0  0  0  0  0  0  0  0  0  0
  -25.9395    0.2581   28.6022 C   0  0  0  0  0  0  0  0  0  0  0  0
  -25.1629   -0.3078   29.3215 C   0  0  0  0  0  0  0  0  0  0  0  0
  -25.2155    1.0634   27.5383 C   0  0  0  0  0  0  0  0  0  0  0  0
  -25.7162    1.8355   26.5785 C   0  0  0  0  0  0  0  0  0  0  0  0
  -23.7191    1.1225   27.7383 C   0  0  0  0  0  0  0  0  0  0  0  0
  -23.0270    0.5399   28.7088 C   0  0  0  0  0  0  0  0  0  0  0  0
  -23.7431   -0.2992   29.5871 C   0  0  0  0  0  0  0  0  0  0  0  0
  1  2  1  0
  1  3  1  0
  1  4  2  0
  1  5  1  0
  2  6  1  0
  8  9  1  0
  6  7  2  0
  7 12  1  0
 12 11  2  0
 11 10  1  0
 10  8  2  0
  8  6  1  0
M  END

$$$$
