No_2123-gen_results/8p0m/2024-11-27-11-27-31/
     RDKit          3D

 18 19  0  0  0  0  0  0  0  0999 V2000
  -28.0162   -0.8135   28.8779 C   0  0  0  0  0  0  0  0  0  0  0  0
  -27.0636   -0.1189   28.6079 C   0  0  0  0  0  0  0  0  0  0  0  0
  -25.7923   -0.4302   29.0761 C   0  0  0  0  0  0  0  0  0  0  0  0
  -25.5756   -1.5654   29.9363 C   0  0  0  0  0  0  0  0  0  0  0  0
  -26.7354   -2.3004   30.2173 C   0  0  0  0  0  0  0  0  0  0  0  0
  -27.9184   -1.9537   29.7629 C   0  0  0  0  0  0  0  0  0  0  0  0
  -26.8968    1.1016   27.7052 C   0  0  0  0  0  0  0  0  0  0  0  0
  -25.9523    1.5257   27.2007 N   0  0  0  0  0  0  0  0  0  0  0  0
  -25.7749    2.6185   26.5689 C   0  0  0  0  0  0  0  0  0  0  0  0
  -24.4618    2.9945   26.0589 C   0  0  0  0  0  0  0  0  0  0  0  0
  -23.4989    2.0210   26.3350 C   0  0  0  0  0  0  0  0  0  0  0  0
  -24.5785    0.8637   27.1922 C   0  0  0  0  0  0  0  0  0  0  0  0
  -28.0764    1.3280   27.1548 O   0  0  0  0  0  0  0  0  0  0  0  0
  -29.2832   -2.8320   30.2711 Cl  0  0  0  0  0  0  0  0  0  0  0  0
  -22.3008    2.3045   27.1663 C   0  0  0  0  0  0  0  0  0  0  0  0
  -22.5299    2.2912   28.5711 C   0  0  0  0  0  0  0  0  0  0  0  0
  -23.5181    2.5841   29.0918 O   0  0  0  0  0  0  0  0  0  0  0  0
  -21.5136    1.7400   29.2929 O   0  0  0  0  0  0  0  0  0  0  0  0
  2  7  1  0
  7  8  1  0
  8  9  1  0
  9 10  2  0
 10 11  1  0
  8 12  1  0
 11 12  1  0
  7 13  2  0
  6 14  1  0
 11 15  1  0
 15 16  1  0
 16 17  1  0
 16 18  2  0
  1  2  2  0
  2  3  1  0
  3  4  2  0
  4  5  1  0
  5  6  2  0
  6  1  1  0
M  END

$$$$
