No_2537-gen_results/8p0m/2024-11-27-11-27-31/
     RDKit          3D

 25 28  0  0  0  0  0  0  0  0999 V2000
  -28.0162   -0.8135   28.8779 C   0  0  0  0  0  0  0  0  0  0  0  0
  -27.0636   -0.1189   28.6079 C   0  0  0  0  0  0  0  0  0  0  0  0
  -25.7647   -0.3897   29.0360 C   0  0  0  0  0  0  0  0  0  0  0  0
  -24.5516    0.4058   28.7646 C   0  0  0  0  0  0  0  0  0  0  0  0
  -24.6957    1.4480   27.7988 C   0  0  0  0  0  0  0  0  0  0  0  0
  -23.5821    2.2166   27.4626 C   0  0  0  0  0  0  0  0  0  0  0  0
  -22.3211    1.8240   27.9807 C   0  0  0  0  0  0  0  0  0  0  0  0
  -22.1777    0.8172   28.8883 C   0  0  0  0  0  0  0  0  0  0  0  0
  -23.3181    0.0417   29.2597 C   0  0  0  0  0  0  0  0  0  0  0  0
  -27.8970   -1.8952   29.8587 C   0  0  0  0  0  0  0  0  0  0  0  0
  -26.6530   -2.3395   30.2732 C   0  0  0  0  0  0  0  0  0  0  0  0
  -25.5330   -1.5566   29.9092 C   0  0  0  0  0  0  0  0  0  0  0  0
  -28.9691   -2.6639   30.1875 O   0  0  0  0  0  0  0  0  0  0  0  0
  -28.8468   -3.9365   30.6387 C   0  0  0  0  0  0  0  0  0  0  0  0
  -30.0533   -4.4760   31.1983 C   0  0  0  0  0  0  0  0  0  0  0  0
  -29.9057   -5.6025   31.5822 O   0  0  0  0  0  0  0  0  0  0  0  0
  -30.9664   -3.7665   31.6698 N   0  0  0  0  0  0  0  0  0  0  0  0
  -32.1590   -4.2687   32.3185 C   0  0  0  0  0  0  0  0  0  0  0  0
  -24.2188   -1.8929   30.3905 C   0  0  0  0  0  0  0  0  0  0  0  0
  -23.1400   -1.0760   30.1421 C   0  0  0  0  0  0  0  0  0  0  0  0
  -23.7583    3.5272   26.3791 Cl  0  0  0  0  0  0  0  0  0  0  0  0
  -33.0790   -3.4501   32.4555 C   0  0  0  0  0  0  0  0  0  0  0  0
  -32.9794   -2.0968   32.0877 C   0  0  0  0  0  0  0  0  0  0  0  0
  -31.8232   -1.6103   31.4346 C   0  0  0  0  0  0  0  0  0  0  0  0
  -30.9142   -2.3651   31.2173 C   0  0  0  0  0  0  0  0  0  0  0  0
  3  4  1  0
 10 13  1  0
 13 14  1  0
 14 15  1  0
 15 16  2  0
 15 17  1  0
 17 18  1  0
 12 19  1  0
  9 20  1  0
 19 20  1  0
  6 21  1  0
 22 23  1  0
 17 25  1  0
 24 25  1  0
 18 22  1  0
 23 24  1  0
  1  2  2  0
  2  3  1  0
  3 12  2  0
 12 11  1  0
 11 10  2  0
 10  1  1  0
  4  5  2  0
  5  6  1  0
  6  7  2  0
  7  8  1  0
  8  9  2  0
  9  4  1  0
M  END

$$$$
