No_2434-gen_results/8p0m/2024-11-27-11-27-31/
     RDKit          3D

 35 37  0  0  0  0  0  0  0  0999 V2000
  -28.0162   -0.8135   28.8779 C   0  0  0  0  0  0  0  0  0  0  0  0
  -27.0636   -0.1190   28.6079 C   0  0  0  0  0  0  0  0  0  0  0  0
  -25.7923   -0.4302   29.0761 C   0  0  0  0  0  0  0  0  0  0  0  0
  -25.5756   -1.5654   29.9363 C   0  0  0  0  0  0  0  0  0  0  0  0
  -24.3722   -1.9422   30.4466 C   0  0  0  0  0  0  0  0  0  0  0  0
  -27.9640   -1.9247   29.7899 C   0  0  0  0  0  0  0  0  0  0  0  0
  -26.7624   -2.3055   30.3031 C   0  0  0  0  0  0  0  0  0  0  0  0
  -29.2284   -2.5303   30.1803 C   0  0  0  0  0  0  0  0  0  0  0  0
  -30.2301   -1.9983   30.0607 O   0  0  0  0  0  0  0  0  0  0  0  0
  -29.0994   -3.8310   30.7118 N   0  0  0  0  0  0  0  0  0  0  0  0
  -30.2876   -4.5848   31.0716 C   0  0  0  0  0  0  0  0  0  0  0  0
  -23.3224   -1.9258   29.4787 C   0  0  0  0  0  0  0  0  0  0  0  0
  -22.3883   -0.7775   29.6229 C   0  0  0  0  0  0  0  0  0  0  0  0
  -22.6792    0.3235   30.3880 C   0  0  0  0  0  0  0  0  0  0  0  0
  -21.2162   -0.6777   28.7101 C   0  0  0  0  0  0  0  0  0  0  0  0
  -27.1019    0.9982   27.6214 C   0  0  0  0  0  0  0  0  0  0  0  0
  -27.7082    1.9556   27.9031 F   0  0  0  0  0  0  0  0  0  0  0  0
  -27.5670    0.4836   26.4267 F   0  0  0  0  0  0  0  0  0  0  0  0
  -25.8203    1.4155   27.2421 F   0  0  0  0  0  0  0  0  0  0  0  0
  -30.9499   -5.0598   30.0345 C   0  0  0  0  0  0  0  0  0  0  0  0
  -30.6156   -4.9260   28.8047 C   0  0  0  0  0  0  0  0  0  0  0  0
  -31.2091   -5.5568   27.6539 C   0  0  0  0  0  0  0  0  0  0  0  0
  -32.1972   -6.4915   27.8723 C   0  0  0  0  0  0  0  0  0  0  0  0
  -32.5853   -6.7328   29.2113 C   0  0  0  0  0  0  0  0  0  0  0  0
  -31.9431   -6.1286   30.2461 C   0  0  0  0  0  0  0  0  0  0  0  0
  -23.6031    0.3322   31.2533 N   0  0  0  0  0  0  0  0  0  0  0  0
  -23.9836   -0.3529   32.2183 C   0  0  0  0  0  0  0  0  0  0  0  0
  -24.0039   -1.2234   31.7563 N   0  0  0  0  0  0  0  0  0  0  0  0
  -24.1820    1.7373   31.2596 C   0  0  0  0  0  0  0  0  0  0  0  0
  -25.6089    1.9285   31.0561 C   0  0  0  0  0  0  0  0  0  0  0  0
  -26.0351    3.2847   30.7870 C   0  0  0  0  0  0  0  0  0  0  0  0
  -27.0714    3.6300   30.4204 C   0  0  0  0  0  0  0  0  0  0  0  0
  -27.3966    4.9881   30.0167 C   0  0  0  0  0  0  0  0  0  0  0  0
  -26.5932    5.5422   29.7647 C   0  0  0  0  0  0  0  0  0  0  0  0
  -25.1660    5.3871   29.8447 C   0  0  0  0  0  0  0  0  0  0  0  0
  6  8  1  0
  8  9  2  0
  8 10  1  0
 10 11  1  0
  5 12  1  0
 12 13  2  0
 13 14  1  0
 13 15  1  0
  2 16  1  0
 16 17  1  0
 16 18  1  0
 16 19  1  0
 11 20  1  0
 14 26  1  0
 26 27  1  0
  5 28  1  0
 27 28  2  0
 26 29  1  0
 29 30  1  0
 30 31  2  3
 31 32  1  0
 32 33  2  3
 33 34  1  0
 34 35  2  0
  5  4  1  0
 20 21  2  0
 21 22  1  0
 22 23  2  0
 23 24  1  0
 24 25  2  0
 25 20  1  0
  1  2  2  0
  2  3  1  0
  3  4  2  0
  4  7  1  0
  7  6  2  0
  6  1  1  0
M  END

$$$$
