No_2387-gen_results/8p0m/2024-11-27-11-27-31/
     RDKit          3D

 24 27  0  0  0  0  0  0  0  0999 V2000
  -28.0162   -0.8135   28.8779 C   0  0  0  0  0  0  0  0  0  0  0  0
  -27.0636   -0.1189   28.6079 C   0  0  0  0  0  0  0  0  0  0  0  0
  -25.7923   -0.4302   29.0761 C   0  0  0  0  0  0  0  0  0  0  0  0
  -24.5456    0.3494   28.8225 C   0  0  0  0  0  0  0  0  0  0  0  0
  -23.2409    0.0217   29.3323 C   0  0  0  0  0  0  0  0  0  0  0  0
  -27.8820   -1.8995   29.8633 C   0  0  0  0  0  0  0  0  0  0  0  0
  -26.6526   -2.3142   30.3138 C   0  0  0  0  0  0  0  0  0  0  0  0
  -25.5153   -1.5607   29.9787 C   0  0  0  0  0  0  0  0  0  0  0  0
  -22.1588    0.7866   28.9507 C   0  0  0  0  0  0  0  0  0  0  0  0
  -22.1309    1.7439   27.9818 C   0  0  0  0  0  0  0  0  0  0  0  0
  -24.5165    1.3706   27.7930 C   0  0  0  0  0  0  0  0  0  0  0  0
  -23.3378    2.0353   27.4273 C   0  0  0  0  0  0  0  0  0  0  0  0
  -29.2374   -2.8463   30.3431 Cl  0  0  0  0  0  0  0  0  0  0  0  0
  -23.4660    2.9820   26.4698 O   0  0  0  0  0  0  0  0  0  0  0  0
  -24.7527    2.9609   25.8668 C   0  0  0  0  0  0  0  0  0  0  0  0
  -25.5446    1.7365   27.0266 N   0  0  0  0  0  0  0  0  0  0  0  0
  -26.5749    1.7787   26.3263 C   0  0  0  0  0  0  0  0  0  0  0  0
  -27.1904    1.7692   25.4902 C   0  0  0  0  0  0  0  0  0  0  0  0
  -28.5550    1.3855   25.1367 C   0  0  0  0  0  0  0  0  0  0  0  0
  -29.3153    1.1033   26.2292 C   0  0  0  0  0  0  0  0  0  0  0  0
  -30.6137    0.6398   26.0260 C   0  0  0  0  0  0  0  0  0  0  0  0
  -31.0224    0.3795   24.7411 C   0  0  0  0  0  0  0  0  0  0  0  0
  -30.2474    0.6070   23.6230 C   0  0  0  0  0  0  0  0  0  0  0  0
  -28.9845    1.1107   23.8554 C   0  0  0  0  0  0  0  0  0  0  0  0
  3  4  1  0
  6 13  1  0
 12 14  1  0
 14 15  1  0
 11 16  1  0
 15 16  1  0
 16 17  1  0
 17 18  2  3
 18 19  1  0
  1  2  2  0
  2  3  1  0
  3  8  2  0
  8  7  1  0
  7  6  2  0
  6  1  1  0
 19 20  2  0
 20 21  1  0
 21 22  2  0
 22 23  1  0
 23 24  2  0
 24 19  1  0
  4  5  2  0
  5  9  1  0
  9 10  2  0
 10 12  1  0
 12 11  2  0
 11  4  1  0
M  END

$$$$
