No_2437-gen_results/8p0m/2024-11-27-11-27-31/
     RDKit          3D

 28 30  0  0  0  0  0  0  0  0999 V2000
  -28.1229   -1.3353   28.4874 O   0  0  0  0  0  0  0  0  0  0  0  0
  -28.5208   -0.4363   29.0779 C   0  0  0  0  0  0  0  0  0  0  0  0
  -28.5894    0.5916   28.9464 C   0  0  0  0  0  0  0  0  0  0  0  0
  -28.7865   -0.8872   30.4874 N   0  0  0  0  0  0  0  0  0  0  0  0
  -27.7841    1.2822   27.9869 C   0  0  0  0  0  0  0  0  0  0  0  0
  -26.4272    1.0397   27.9945 C   0  0  0  0  0  0  0  0  0  0  0  0
  -25.6366    1.3015   28.8292 C   0  0  0  0  0  0  0  0  0  0  0  0
  -24.1528    1.0051   28.7690 C   0  0  0  0  0  0  0  0  0  0  0  0
  -23.3576    0.6944   29.7704 C   0  0  0  0  0  0  0  0  0  0  0  0
  -23.8616    0.9724   31.1122 C   0  0  0  0  0  0  0  0  0  0  0  0
  -25.2031    1.4037   31.3004 C   0  0  0  0  0  0  0  0  0  0  0  0
  -26.0158    1.4398   30.1778 C   0  0  0  0  0  0  0  0  0  0  0  0
  -29.3223   -0.0848   31.5412 C   0  0  0  0  0  0  0  0  0  0  0  0
  -28.5375   -2.3300   30.9208 C   0  0  0  0  0  0  0  0  0  0  0  0
  -25.9580    0.5679   26.6101 C   0  0  0  0  0  0  0  0  0  0  0  0
  -30.4827   -0.4535   32.1095 C   0  0  0  0  0  0  0  0  0  0  0  0
  -31.0910    0.3601   32.8049 C   0  0  0  0  0  0  0  0  0  0  0  0
  -30.5436    1.6860   33.1257 C   0  0  0  0  0  0  0  0  0  0  0  0
  -29.5985    1.9272   32.7282 C   0  0  0  0  0  0  0  0  0  0  0  0
  -28.7919    1.1912   31.7968 C   0  0  0  0  0  0  0  0  0  0  0  0
  -28.3486   -3.2224   30.0092 C   0  0  0  0  0  0  0  0  0  0  0  0
  -28.2698   -4.4918   30.7041 C   0  0  0  0  0  0  0  0  0  0  0  0
  -27.7992   -5.4025   30.0489 O   0  0  0  0  0  0  0  0  0  0  0  0
  -28.9216   -4.7966   31.7085 O   0  0  0  0  0  0  0  0  0  0  0  0
  -25.8248    1.3817   25.6257 C   0  0  0  0  0  0  0  0  0  0  0  0
  -28.3732    2.1629   27.0074 C   0  0  0  0  0  0  0  0  0  0  0  0
  -28.0551    2.3008   25.6656 C   0  0  0  0  0  0  0  0  0  0  0  0
  -26.8586    2.1159   25.0717 C   0  0  0  0  0  0  0  0  0  0  0  0
  1  2  2  0
  2  3  1  0
  2  4  1  0
  3  5  1  0
  5  6  1  0
  4 13  1  0
  4 14  1  0
  6 15  1  0
 14 21  1  0
 21 22  1  0
 22 23  2  0
 22 24  1  0
 15 25  2  0
  5 26  1  0
 26 27  2  0
 25 28  1  0
 27 28  1  0
  6  7  1  0
  7  8  2  0
  8  9  1  0
  9 10  2  0
 10 11  1  0
 11 12  2  0
 12  7  1  0
 13 16  2  0
 16 17  1  0
 17 18  2  0
 18 19  1  0
 19 20  2  0
 20 13  1  0
M  END

$$$$
