No_2020-gen_results/8p0m/2024-11-27-11-27-31/
     RDKit          3D

 17 18  0  0  0  0  0  0  0  0999 V2000
  -28.0727   -1.2542   28.5316 F   0  0  0  0  0  0  0  0  0  0  0  0
  -27.3591   -0.3792   28.7224 C   0  0  0  0  0  0  0  0  0  0  0  0
  -26.3323   -0.6441   29.4520 C   0  0  0  0  0  0  0  0  0  0  0  0
  -25.2562    0.3203   29.7818 C   0  0  0  0  0  0  0  0  0  0  0  0
  -25.4242    1.6275   29.2026 C   0  0  0  0  0  0  0  0  0  0  0  0
  -26.5263    1.8254   28.4032 C   0  0  0  0  0  0  0  0  0  0  0  0
  -27.4513    0.8601   28.1355 C   0  0  0  0  0  0  0  0  0  0  0  0
  -28.4783    1.1476   27.3388 O   0  0  0  0  0  0  0  0  0  0  0  0
  -28.2967    1.1110   26.0067 C   0  0  0  0  0  0  0  0  0  0  0  0
  -29.2806    0.4981   25.2430 C   0  0  0  0  0  0  0  0  0  0  0  0
  -30.2035   -0.1684   25.8969 C   0  0  0  0  0  0  0  0  0  0  0  0
  -31.2048   -0.9014   25.0827 C   0  0  0  0  0  0  0  0  0  0  0  0
  -31.0183   -0.9323   23.7039 C   0  0  0  0  0  0  0  0  0  0  0  0
  -30.0115   -0.3023   23.0897 C   0  0  0  0  0  0  0  0  0  0  0  0
  -29.0774    0.4467   23.8552 C   0  0  0  0  0  0  0  0  0  0  0  0
  -27.5440    2.1186   25.5578 O   0  0  0  0  0  0  0  0  0  0  0  0
  -24.2697    2.8126   29.5882 Cl  0  0  0  0  0  0  0  0  0  0  0  0
  1  2  1  0
  7  8  1  0
  8  9  1  0
  9 10  1  0
  9 16  2  0
  5 17  1  0
  2  3  2  0
  3  4  1  0
  4  5  2  0
  5  6  1  0
  6  7  2  0
  7  2  1  0
 10 11  2  0
 11 12  1  0
 12 13  2  0
 13 14  1  0
 14 15  2  0
 15 10  1  0
M  END

$$$$
