No_2128-gen_results/8p0m/2024-11-27-11-27-31/
     RDKit          3D

 17 18  0  0  0  0  0  0  0  0999 V2000
  -28.1493   -0.8198   28.9079 Cl  0  0  0  0  0  0  0  0  0  0  0  0
  -26.9116   -0.0797   28.9452 C   0  0  0  0  0  0  0  0  0  0  0  0
  -26.0490   -0.0718   27.8591 C   0  0  0  0  0  0  0  0  0  0  0  0
  -24.7194    0.4034   27.9174 C   0  0  0  0  0  0  0  0  0  0  0  0
  -24.2099    0.9302   29.0839 C   0  0  0  0  0  0  0  0  0  0  0  0
  -25.0231    0.9078   30.1875 C   0  0  0  0  0  0  0  0  0  0  0  0
  -26.2532    0.3904   30.1401 C   0  0  0  0  0  0  0  0  0  0  0  0
  -22.8500    1.4479   29.0593 C   0  0  0  0  0  0  0  0  0  0  0  0
  -22.0944    1.5228   27.9761 N   0  0  0  0  0  0  0  0  0  0  0  0
  -22.4857    1.9544   29.9987 O   0  0  0  0  0  0  0  0  0  0  0  0
  -27.0787    0.3463   31.4316 C   0  0  0  0  0  0  0  0  0  0  0  0
  -28.3402    0.8171   31.4858 C   0  0  0  0  0  0  0  0  0  0  0  0
  -28.6710    1.9035   30.8604 C   0  0  0  0  0  0  0  0  0  0  0  0
  -30.0263    2.3652   30.8176 C   0  0  0  0  0  0  0  0  0  0  0  0
  -30.9533    1.5746   31.5317 C   0  0  0  0  0  0  0  0  0  0  0  0
  -30.6247    0.4393   32.1649 C   0  0  0  0  0  0  0  0  0  0  0  0
  -29.2982    0.0010   32.1865 C   0  0  0  0  0  0  0  0  0  0  0  0
  1  2  1  0
  5  8  1  0
  8  9  1  0
  8 10  2  0
  7 11  1  0
 11 12  1  0
 12 13  2  0
 13 14  1  0
 14 15  2  0
 15 16  1  0
 16 17  2  0
 17 12  1  0
  2  3  2  0
  3  4  1  0
  4  5  2  0
  5  6  1  0
  6  7  2  0
  7  2  1  0
M  END

$$$$
