No_276-gen_results/8p0m/2024-11-27-11-27-31/
     RDKit          3D

 16 17  0  0  0  0  0  0  0  0999 V2000
  -28.0162   -0.8135   28.8779 C   0  0  0  0  0  0  0  0  0  0  0  0
  -28.4690   -0.7850   29.8287 C   0  0  0  0  0  0  0  0  0  0  0  0
  -28.1960    0.3478   28.0550 C   0  0  0  0  0  0  0  0  0  0  0  0
  -29.0191    1.3501   28.3782 C   0  0  0  0  0  0  0  0  0  0  0  0
  -29.4107    0.1803   30.3782 C   0  0  0  0  0  0  0  0  0  0  0  0
  -29.6059    1.2495   29.6193 C   0  0  0  0  0  0  0  0  0  0  0  0
  -27.4478    0.3799   26.7122 C   0  0  0  0  0  0  0  0  0  0  0  0
  -25.9806    0.2548   26.7837 C   0  0  0  0  0  0  0  0  0  0  0  0
  -25.3349   -0.0583   27.9448 C   0  0  0  0  0  0  0  0  0  0  0  0
  -24.0034    0.2847   28.0953 C   0  0  0  0  0  0  0  0  0  0  0  0
  -23.2282   -0.1693   29.2421 C   0  0  0  0  0  0  0  0  0  0  0  0
  -23.8290   -1.0696   30.0771 C   0  0  0  0  0  0  0  0  0  0  0  0
  -25.0782   -1.4961   29.9014 C   0  0  0  0  0  0  0  0  0  0  0  0
  -25.8196   -1.0285   28.8496 C   0  0  0  0  0  0  0  0  0  0  0  0
  -25.9647   -2.2908   28.1426 O   0  0  0  0  0  0  0  0  0  0  0  0
  -26.5160   -1.2940   28.6739 O   0  0  0  0  0  0  0  0  0  0  0  0
  3  7  1  0
  7  8  1  0
  8  9  1  0
 10 11  1  0
 12 13  1  0
  9 14  1  0
 13 14  1  0
 14 15  1  0
 14 16  1  0
  9 10  1  0
 11 12  1  0
  1  2  2  0
  2  5  1  0
  5  6  2  0
  6  4  1  0
  4  3  2  0
  3  1  1  0
M  END

$$$$
