No_2525-gen_results/8p0m/2024-11-27-11-27-31/
     RDKit          3D

 35 39  0  0  0  0  0  0  0  0999 V2000
  -28.0162   -0.8135   28.8779 C   0  0  0  0  0  0  0  0  0  0  0  0
  -28.4690   -0.7850   29.8287 C   0  0  0  0  0  0  0  0  0  0  0  0
  -26.5455   -0.8762   28.8500 C   0  0  0  0  0  0  0  0  0  0  0  0
  -25.8041   -1.0324   30.0571 C   0  0  0  0  0  0  0  0  0  0  0  0
  -27.9437   -0.9869   31.2075 C   0  0  0  0  0  0  0  0  0  0  0  0
  -26.5825   -1.0386   31.2231 C   0  0  0  0  0  0  0  0  0  0  0  0
  -29.9267   -0.7257   29.8772 O   0  0  0  0  0  0  0  0  0  0  0  0
  -30.5050   -0.0237   28.9624 C   0  0  0  0  0  0  0  0  0  0  0  0
  -31.3773   -0.3992   28.1172 C   0  0  0  0  0  0  0  0  0  0  0  0
  -31.9394    0.3228   27.0412 C   0  0  0  0  0  0  0  0  0  0  0  0
  -31.4912    1.6577   26.9464 C   0  0  0  0  0  0  0  0  0  0  0  0
  -30.0152    1.3636   28.7408 C   0  0  0  0  0  0  0  0  0  0  0  0
  -30.5425    2.1519   27.8151 C   0  0  0  0  0  0  0  0  0  0  0  0
  -24.3782   -1.1203   30.0680 C   0  0  0  0  0  0  0  0  0  0  0  0
  -23.6250   -1.0038   29.0103 C   0  0  0  0  0  0  0  0  0  0  0  0
  -22.1630   -0.8776   29.1062 C   0  0  0  0  0  0  0  0  0  0  0  0
  -21.4616   -0.3448   28.0581 C   0  0  0  0  0  0  0  0  0  0  0  0
  -22.1675    0.6844   27.2726 C   0  0  0  0  0  0  0  0  0  0  0  0
  -23.6014    0.7552   27.3153 C   0  0  0  0  0  0  0  0  0  0  0  0
  -24.2467    0.0217   28.1499 C   0  0  0  0  0  0  0  0  0  0  0  0
  -25.7512   -0.3426   27.7989 N   0  0  0  0  0  0  0  0  0  0  0  0
  -26.2438   -0.0016   26.5883 C   0  0  0  0  0  0  0  0  0  0  0  0
  -26.0345   -0.7841   25.5663 C   0  0  0  0  0  0  0  0  0  0  0  0
  -27.3039    0.9680   26.5795 C   0  0  0  0  0  0  0  0  0  0  0  0
  -27.8856    1.3129   25.3475 C   0  0  0  0  0  0  0  0  0  0  0  0
  -27.5670    0.5655   24.2320 C   0  0  0  0  0  0  0  0  0  0  0  0
  -26.6567   -0.4668   24.3369 C   0  0  0  0  0  0  0  0  0  0  0  0
  -32.1264    2.5322   25.8934 C   0  0  0  0  0  0  0  0  0  0  0  0
  -31.9327    3.6630   25.9443 O   0  0  0  0  0  0  0  0  0  0  0  0
  -33.0638    2.0237   25.2024 O   0  0  0  0  0  0  0  0  0  0  0  0
  -31.7615   -1.7241   28.1845 O   0  0  0  0  0  0  0  0  0  0  0  0
  -32.6497   -2.2644   27.3376 C   0  0  0  0  0  0  0  0  0  0  0  0
  -32.0126   -3.3978   26.7321 C   0  0  0  0  0  0  0  0  0  0  0  0
  -31.2725   -4.0039   27.2246 O   0  0  0  0  0  0  0  0  0  0  0  0
  -32.3932   -3.5998   25.4162 O   0  0  0  0  0  0  0  0  0  0  0  0
  2  7  1  0
  7  8  1  0
  4 14  1  0
  3 21  1  0
 20 21  1  0
 21 22  1  0
 11 28  1  0
 28 29  2  0
 28 30  1  0
  9 31  1  0
 31 32  1  0
 32 33  1  0
 33 34  2  0
 33 35  1  0
 14 15  1  0
 15 16  2  0
 16 17  1  0
 17 18  2  0
 18 19  1  0
 19 20  2  0
 20 15  1  0
 22 23  2  0
 23 27  1  0
 27 26  2  0
 26 25  1  0
 25 24  2  0
 24 22  1  0
  1  2  2  0
  2  5  1  0
  5  6  2  0
  6  4  1  0
  4  3  2  0
  3  1  1  0
  8  9  2  0
  9 10  1  0
 10 11  2  0
 11 13  1  0
 13 12  2  0
 12  8  1  0
M  END

$$$$
