No_2496-gen_results/8p0m/2024-11-27-11-27-31/
     RDKit          3D

 27 29  0  0  0  0  0  0  0  0999 V2000
  -28.0162   -0.8135   28.8779 C   0  0  0  0  0  0  0  0  0  0  0  0
  -27.0636   -0.1190   28.6079 C   0  0  0  0  0  0  0  0  0  0  0  0
  -27.0010    0.6913   27.4910 C   0  0  0  0  0  0  0  0  0  0  0  0
  -25.8548    1.4825   27.0830 C   0  0  0  0  0  0  0  0  0  0  0  0
  -24.9008    1.3893   27.5922 C   0  0  0  0  0  0  0  0  0  0  0  0
  -24.6783    0.5764   28.8299 C   0  0  0  0  0  0  0  0  0  0  0  0
  -25.7704   -0.2051   29.2800 C   0  0  0  0  0  0  0  0  0  0  0  0
  -27.8865   -1.5554   30.0331 N   0  0  0  0  0  0  0  0  0  0  0  0
  -29.1686   -0.6321   28.4890 O   0  0  0  0  0  0  0  0  0  0  0  0
  -28.9941   -2.4320   30.5741 C   0  0  0  0  0  0  0  0  0  0  0  0
  -23.7578    2.3490   27.2199 C   0  0  0  0  0  0  0  0  0  0  0  0
  -22.9817    2.6445   28.1739 F   0  0  0  0  0  0  0  0  0  0  0  0
  -24.1535    3.4846   26.7688 F   0  0  0  0  0  0  0  0  0  0  0  0
  -22.9508    1.7633   26.2717 F   0  0  0  0  0  0  0  0  0  0  0  0
  -28.8017   -3.7882   30.2873 C   0  0  0  0  0  0  0  0  0  0  0  0
  -30.0226   -4.5665   30.0862 C   0  0  0  0  0  0  0  0  0  0  0  0
  -30.8489   -5.1367   29.0710 Br  0  0  0  0  0  0  0  0  0  0  0  0
  -30.3777   -4.9532   31.5742 N   0  0  0  0  0  0  0  0  0  0  0  0
  -30.7500   -4.0965   32.4075 C   0  0  0  0  0  0  0  0  0  0  0  0
  -29.9173   -1.8505   31.4223 C   0  0  0  0  0  0  0  0  0  0  0  0
  -30.3238   -2.7460   32.5780 C   0  0  0  0  0  0  0  0  0  0  0  0
  -30.2581   -6.3717   31.8376 C   0  0  0  0  0  0  0  0  0  0  0  0
  -29.8918   -6.7110   33.0701 C   0  0  0  0  0  0  0  0  0  0  0  0
  -30.6306   -7.4140   33.7074 C   0  0  0  0  0  0  0  0  0  0  0  0
  -31.4912   -8.4116   33.0516 C   0  0  0  0  0  0  0  0  0  0  0  0
  -31.7269   -8.1453   31.6737 C   0  0  0  0  0  0  0  0  0  0  0  0
  -31.1535   -7.1789   31.1818 C   0  0  0  0  0  0  0  0  0  0  0  0
  1  2  1  0
  1  8  1  0
  1  9  2  0
  8 10  1  0
  5 11  1  0
 11 12  1  0
 11 13  1  0
 11 14  1  0
 10 15  1  0
 15 16  1  0
 16 17  1  0
 16 18  1  0
 18 19  1  0
 10 20  1  0
 19 21  2  0
 20 21  1  0
 18 22  1  0
  2  3  2  0
  3  4  1  0
  4  5  2  0
  5  6  1  0
  6  7  2  0
  7  2  1  0
 22 23  2  0
 23 24  1  0
 24 25  2  0
 25 26  1  0
 26 27  2  0
 27 22  1  0
M  END

$$$$
