No_2989-gen_results/8p0m/2024-11-27-11-27-31/
     RDKit          3D

 22 24  0  0  0  0  0  0  0  0999 V2000
  -28.0162   -0.8135   28.8779 C   0  0  0  0  0  0  0  0  0  0  0  0
  -28.4690   -0.7850   29.8287 C   0  0  0  0  0  0  0  0  0  0  0  0
  -27.0871    0.2903   28.6377 C   0  0  0  0  0  0  0  0  0  0  0  0
  -26.8317    1.2487   29.5869 C   0  0  0  0  0  0  0  0  0  0  0  0
  -28.3914    0.0801   31.0065 C   0  0  0  0  0  0  0  0  0  0  0  0
  -27.4940    1.1521   30.7841 C   0  0  0  0  0  0  0  0  0  0  0  0
  -26.2596    0.6039   27.4149 C   0  0  0  0  0  0  0  0  0  0  0  0
  -25.1967    1.0461   27.3445 C   0  0  0  0  0  0  0  0  0  0  0  0
  -24.8438    2.0437   28.4640 C   0  0  0  0  0  0  0  0  0  0  0  0
  -25.5969    2.0134   29.6123 C   0  0  0  0  0  0  0  0  0  0  0  0
  -23.7489    2.7896   28.2583 F   0  0  0  0  0  0  0  0  0  0  0  0
  -29.6119   -1.9316   30.1547 C   0  0  0  0  0  0  0  0  0  0  0  0
  -30.1948   -1.8954   31.3225 O   0  0  0  0  0  0  0  0  0  0  0  0
  -29.7216   -2.8511   29.4290 O   0  0  0  0  0  0  0  0  0  0  0  0
  -24.2537    1.2504   25.9266 Cl  0  0  0  0  0  0  0  0  0  0  0  0
  -25.1691    3.0651   30.9371 Cl  0  0  0  0  0  0  0  0  0  0  0  0
  -31.3281   -2.5961   31.4285 C   0  0  0  0  0  0  0  0  0  0  0  0
  -32.2977   -2.2404   32.4324 C   0  0  0  0  0  0  0  0  0  0  0  0
  -33.4002   -2.9186   32.5655 C   0  0  0  0  0  0  0  0  0  0  0  0
  -33.6431   -4.0245   31.7134 C   0  0  0  0  0  0  0  0  0  0  0  0
  -32.7486   -4.3985   30.7580 C   0  0  0  0  0  0  0  0  0  0  0  0
  -31.5668   -3.6803   30.6313 C   0  0  0  0  0  0  0  0  0  0  0  0
  9 11  1  0
  2 12  1  0
 12 13  1  0
 12 14  2  0
  8 15  1  0
 10 16  1  0
 13 17  1  0
 17 18  2  0
 18 19  1  0
 19 20  2  0
 20 21  1  0
 21 22  2  0
 22 17  1  0
  4 10  2  0
 10  9  1  0
  9  8  2  0
  8  7  1  0
  7  3  2  0
  1  2  2  0
  2  5  1  0
  5  6  2  0
  6  4  1  0
  4  3  1  0
  3  1  1  0
M  END

$$$$
