No_2262-gen_results/8p0m/2024-11-27-11-27-31/
     RDKit          3D

 31 33  0  0  0  0  0  0  0  0999 V2000
  -28.0162   -0.8135   28.8779 C   0  0  0  0  0  0  0  0  0  0  0  0
  -28.4690   -0.7850   29.8287 C   0  0  0  0  0  0  0  0  0  0  0  0
  -27.1356    0.2359   28.5352 C   0  0  0  0  0  0  0  0  0  0  0  0
  -26.8745    1.2825   29.3982 C   0  0  0  0  0  0  0  0  0  0  0  0
  -27.5070    1.2380   30.6295 C   0  0  0  0  0  0  0  0  0  0  0  0
  -28.3293    0.1745   30.9350 C   0  0  0  0  0  0  0  0  0  0  0  0
  -26.4077    0.3070   27.2259 C   0  0  0  0  0  0  0  0  0  0  0  0
  -27.0192    0.0345   26.2763 F   0  0  0  0  0  0  0  0  0  0  0  0
  -25.8064    1.5835   26.9974 F   0  0  0  0  0  0  0  0  0  0  0  0
  -25.2041   -0.5047   27.3401 F   0  0  0  0  0  0  0  0  0  0  0  0
  -29.3866   -2.0210   30.3313 C   0  0  0  0  0  0  0  0  0  0  0  0
  -30.4329   -2.2132   29.9942 O   0  0  0  0  0  0  0  0  0  0  0  0
  -28.7357   -3.0081   31.2090 N   0  0  0  0  0  0  0  0  0  0  0  0
  -28.8918   -4.2042   31.0150 C   0  0  0  0  0  0  0  0  0  0  0  0
  -28.3153   -4.8700   30.0056 C   0  0  0  0  0  0  0  0  0  0  0  0
  -29.8067   -4.9185   31.8827 C   0  0  0  0  0  0  0  0  0  0  0  0
  -30.0797   -6.2857   31.7068 C   0  0  0  0  0  0  0  0  0  0  0  0
  -31.0383   -6.7084   30.7215 C   0  0  0  0  0  0  0  0  0  0  0  0
  -31.7250   -5.7724   30.0242 C   0  0  0  0  0  0  0  0  0  0  0  0
  -32.6893   -6.2037   29.0019 C   0  0  0  0  0  0  0  0  0  0  0  0
  -32.7429   -7.5092   28.7496 C   0  0  0  0  0  0  0  0  0  0  0  0
  -32.0177   -8.4816   29.4493 C   0  0  0  0  0  0  0  0  0  0  0  0
  -31.1492   -8.0849   30.4290 C   0  0  0  0  0  0  0  0  0  0  0  0
  -30.4445   -4.2693   33.0334 C   0  0  0  0  0  0  0  0  0  0  0  0
  -31.3486   -3.3883   32.9264 C   0  0  0  0  0  0  0  0  0  0  0  0
  -32.4663   -3.4336   32.2631 C   0  0  0  0  0  0  0  0  0  0  0  0
  -33.4352   -2.3975   32.1914 C   0  0  0  0  0  0  0  0  0  0  0  0
  -33.1519   -1.2191   32.8827 C   0  0  0  0  0  0  0  0  0  0  0  0
  -32.0014   -1.0673   33.6270 C   0  0  0  0  0  0  0  0  0  0  0  0
  -31.0914   -2.0976   33.7080 C   0  0  0  0  0  0  0  0  0  0  0  0
  -29.9861   -4.8108   34.3712 C   0  0  0  0  0  0  0  0  0  0  0  0
  3  7  1  0
  7  8  1  0
  7  9  1  0
  7 10  1  0
  2 11  1  0
 11 12  2  0
 11 13  1  0
 13 14  1  0
 14 15  2  0
 14 16  1  0
 16 17  1  0
 16 24  1  0
 24 25  1  0
 24 31  1  0
 17 18  1  0
 18 19  2  0
 19 20  1  0
 20 21  2  0
 21 22  1  0
 22 23  2  0
 23 18  1  0
  1  2  2  0
  2  6  1  0
  6  5  2  0
  5  4  1  0
  4  3  2  0
  3  1  1  0
 25 26  2  0
 26 27  1  0
 27 28  2  0
 28 29  1  0
 29 30  2  0
 30 25  1  0
M  END

$$$$
