No_2495-gen_results/8p0m/2024-11-27-11-27-31/
     RDKit          3D

 11 11  0  0  0  0  0  0  0  0999 V2000
  -28.1493   -0.8198   28.9079 Cl  0  0  0  0  0  0  0  0  0  0  0  0
  -26.9116   -0.0797   28.9452 C   0  0  0  0  0  0  0  0  0  0  0  0
  -26.0490   -0.0718   27.8591 C   0  0  0  0  0  0  0  0  0  0  0  0
  -24.7194    0.4034   27.9174 C   0  0  0  0  0  0  0  0  0  0  0  0
  -24.2099    0.9302   29.0839 C   0  0  0  0  0  0  0  0  0  0  0  0
  -22.8548    1.4101   29.2290 C   0  0  0  0  0  0  0  0  0  0  0  0
  -25.0181    0.9975   30.2590 C   0  0  0  0  0  0  0  0  0  0  0  0
  -26.2872    0.4074   30.1763 C   0  0  0  0  0  0  0  0  0  0  0  0
  -22.1684    1.6931   28.0392 N   0  0  0  0  0  0  0  0  0  0  0  0
  -22.3648    1.7141   30.3096 O   0  0  0  0  0  0  0  0  0  0  0  0
  -27.0456    0.3806   31.2788 F   0  0  0  0  0  0  0  0  0  0  0  0
  1  2  1  0
  5  6  1  0
  6  9  1  0
  6 10  2  0
  8 11  1  0
  2  3  2  0
  3  4  1  0
  4  5  2  0
  5  7  1  0
  7  8  2  0
  8  2  1  0
M  END

$$$$
