No_2896-gen_results/8p0m/2024-11-27-11-27-31/
     RDKit          3D

 22 24  0  0  0  0  0  0  0  0999 V2000
  -28.0162   -0.8135   28.8779 C   0  0  0  0  0  0  0  0  0  0  0  0
  -28.4690   -0.7850   29.8287 C   0  0  0  0  0  0  0  0  0  0  0  0
  -28.1816    0.4277   28.1134 C   0  0  0  0  0  0  0  0  0  0  0  0
  -28.9841    1.4155   28.5154 C   0  0  0  0  0  0  0  0  0  0  0  0
  -29.3802    0.1384   30.4612 C   0  0  0  0  0  0  0  0  0  0  0  0
  -29.5415    1.2736   29.7242 C   0  0  0  0  0  0  0  0  0  0  0  0
  -27.5429    0.6374   26.7442 C   0  0  0  0  0  0  0  0  0  0  0  0
  -26.1537    0.5302   26.7496 C   0  0  0  0  0  0  0  0  0  0  0  0
  -25.3991    0.9524   25.6853 C   0  0  0  0  0  0  0  0  0  0  0  0
  -24.0061    0.9206   25.7353 C   0  0  0  0  0  0  0  0  0  0  0  0
  -23.3256    0.7672   26.9581 C   0  0  0  0  0  0  0  0  0  0  0  0
  -24.1154    0.4727   28.0970 C   0  0  0  0  0  0  0  0  0  0  0  0
  -25.4697    0.3873   28.0192 C   0  0  0  0  0  0  0  0  0  0  0  0
  -28.1155    1.7840   26.1265 C   0  0  0  0  0  0  0  0  0  0  0  0
  -29.1960    2.4786   27.6669 C   0  0  0  0  0  0  0  0  0  0  0  0
  -29.1758    2.4290   26.5968 C   0  0  0  0  0  0  0  0  0  0  0  0
  -27.6064    1.9419   24.6601 C   0  0  0  0  0  0  0  0  0  0  0  0
  -26.9183    2.5759   25.8892 C   0  0  0  0  0  0  0  0  0  0  0  0
  -25.5105    2.1450   25.8767 C   0  0  0  0  0  0  0  0  0  0  0  0
  -30.3965    1.7539   25.8536 C   0  0  0  0  0  0  0  0  0  0  0  0
  -27.6543    0.8256   24.1709 C   0  0  0  0  0  0  0  0  0  0  0  0
  -29.3460    3.9377   25.9095 C   0  0  0  0  0  0  0  0  0  0  0  0
  3  7  1  0
  4 15  1  0
 15 16  2  3
 14 17  1  0
 16 20  1  0
 17 21  1  0
 16 22  1  0
  7  8  1  0
  9 19  1  0
 19 18  2  0
 18 14  1  0
 14  7  2  0
  8  9  1  0
  9 10  2  0
 10 11  1  0
 11 12  2  0
 12 13  1  0
 13  8  2  0
  1  2  2  0
  2  5  1  0
  5  6  2  0
  6  4  1  0
  4  3  2  0
  3  1  1  0
M  END

$$$$
