No_2161-gen_results/8p0m/2024-11-27-11-27-31/
     RDKit          3D

 35 38  0  0  0  0  0  0  0  0999 V2000
  -28.0162   -0.8135   28.8779 C   0  0  0  0  0  0  0  0  0  0  0  0
  -27.0636   -0.1189   28.6079 C   0  0  0  0  0  0  0  0  0  0  0  0
  -26.9287    1.1713   29.0083 C   0  0  0  0  0  0  0  0  0  0  0  0
  -25.7702    2.0341   28.6884 C   0  0  0  0  0  0  0  0  0  0  0  0
  -25.6189    3.3482   29.0918 C   0  0  0  0  0  0  0  0  0  0  0  0
  -29.0712   -0.3338   29.7689 C   0  0  0  0  0  0  0  0  0  0  0  0
  -29.0128    0.9333   30.1718 C   0  0  0  0  0  0  0  0  0  0  0  0
  -27.8993    1.7759   29.8587 C   0  0  0  0  0  0  0  0  0  0  0  0
  -24.7637    1.5279   27.7799 C   0  0  0  0  0  0  0  0  0  0  0  0
  -23.6558    2.3377   27.4155 C   0  0  0  0  0  0  0  0  0  0  0  0
  -24.6190    4.2235   28.5229 C   0  0  0  0  0  0  0  0  0  0  0  0
  -23.6237    3.6589   27.7229 C   0  0  0  0  0  0  0  0  0  0  0  0
  -30.0432   -1.2060   30.0565 O   0  0  0  0  0  0  0  0  0  0  0  0
  -29.8424   -2.3602   30.7196 C   0  0  0  0  0  0  0  0  0  0  0  0
  -30.7520   -2.7129   31.7113 C   0  0  0  0  0  0  0  0  0  0  0  0
  -30.4804   -3.7628   32.3115 O   0  0  0  0  0  0  0  0  0  0  0  0
  -29.7096   -3.6153   29.8219 C   0  0  0  0  0  0  0  0  0  0  0  0
  -29.2784   -4.7198   30.6207 O   0  0  0  0  0  0  0  0  0  0  0  0
  -30.1198   -5.0248   31.6558 C   0  0  0  0  0  0  0  0  0  0  0  0
  -32.1171   -2.7081   31.2717 C   0  0  0  0  0  0  0  0  0  0  0  0
  -32.7006   -1.4295   31.4766 C   0  0  0  0  0  0  0  0  0  0  0  0
  -32.5841   -0.8162   32.6280 C   0  0  0  0  0  0  0  0  0  0  0  0
  -32.8454   -3.6347   32.0277 O   0  0  0  0  0  0  0  0  0  0  0  0
  -32.7875    0.5349   32.7350 C   0  0  0  0  0  0  0  0  0  0  0  0
  -32.5386    1.2233   33.9918 C   0  0  0  0  0  0  0  0  0  0  0  0
  -32.1304    0.4540   35.0851 C   0  0  0  0  0  0  0  0  0  0  0  0
  -31.9084   -0.8989   34.9626 C   0  0  0  0  0  0  0  0  0  0  0  0
  -32.0964   -1.4790   33.7563 C   0  0  0  0  0  0  0  0  0  0  0  0
  -30.9098   -3.8829   29.2204 O   0  0  0  0  0  0  0  0  0  0  0  0
  -29.3005   -5.9241   32.6713 C   0  0  0  0  0  0  0  0  0  0  0  0
  -29.5985   -7.2418   32.3459 O   0  0  0  0  0  0  0  0  0  0  0  0
  -34.1193   -4.0786   31.6201 C   0  0  0  0  0  0  0  0  0  0  0  0
  -34.4996   -5.0829   32.3285 C   0  0  0  0  0  0  0  0  0  0  0  0
  -34.1366   -5.4209   33.5536 C   0  0  0  0  0  0  0  0  0  0  0  0
  -34.7463   -6.3425   34.4001 C   0  0  0  0  0  0  0  0  0  0  0  0
  3  4  1  0
  6 13  1  0
 13 14  1  0
 14 15  1  0
 15 16  1  0
 14 17  1  0
 17 18  1  0
 16 19  1  0
 18 19  1  0
 15 20  1  0
 20 21  1  0
 21 22  1  0
 20 23  1  0
 17 29  1  0
 19 30  1  0
 30 31  1  0
 23 32  1  0
 32 33  1  0
 33 34  1  0
 34 35  2  0
 22 24  2  0
 24 25  1  0
 25 26  2  0
 26 27  1  0
 27 28  2  0
 28 22  1  0
  1  2  2  0
  2  3  1  0
  3  8  2  0
  8  7  1  0
  7  6  2  0
  6  1  1  0
  4  5  2  0
  5 11  1  0
 11 12  2  0
 12 10  1  0
 10  9  2  0
  9  4  1  0
M  END

$$$$
