No_2171-gen_results/8p0m/2024-11-27-11-27-31/
     RDKit          3D

 25 27  0  0  0  0  0  0  0  0999 V2000
  -28.0162   -0.8135   28.8779 C   0  0  0  0  0  0  0  0  0  0  0  0
  -27.0636   -0.1189   28.6079 C   0  0  0  0  0  0  0  0  0  0  0  0
  -26.9287    1.1713   29.0083 C   0  0  0  0  0  0  0  0  0  0  0  0
  -25.7702    2.0341   28.6884 C   0  0  0  0  0  0  0  0  0  0  0  0
  -24.7141    1.4431   27.9188 C   0  0  0  0  0  0  0  0  0  0  0  0
  -24.8590    0.0783   27.5836 C   0  0  0  0  0  0  0  0  0  0  0  0
  -25.9647   -0.6606   27.9164 C   0  0  0  0  0  0  0  0  0  0  0  0
  -29.2406   -0.2045   29.0738 C   0  0  0  0  0  0  0  0  0  0  0  0
  -29.2782    1.1474   29.4856 C   0  0  0  0  0  0  0  0  0  0  0  0
  -28.1299    1.9048   29.3190 C   0  0  0  0  0  0  0  0  0  0  0  0
  -23.4452    2.0905   27.6766 C   0  0  0  0  0  0  0  0  0  0  0  0
  -22.5104    1.9017   27.3064 O   0  0  0  0  0  0  0  0  0  0  0  0
  -23.5207    3.3652   28.2708 O   0  0  0  0  0  0  0  0  0  0  0  0
  -30.7148    1.8517   30.0952 Cl  0  0  0  0  0  0  0  0  0  0  0  0
  -30.3619   -1.0019   29.3840 O   0  0  0  0  0  0  0  0  0  0  0  0
  -30.1834   -2.0146   30.1752 C   0  0  0  0  0  0  0  0  0  0  0  0
  -31.2326   -2.2938   31.0812 C   0  0  0  0  0  0  0  0  0  0  0  0
  -31.0725   -3.3136   31.9377 C   0  0  0  0  0  0  0  0  0  0  0  0
  -29.9597   -4.2371   31.8137 C   0  0  0  0  0  0  0  0  0  0  0  0
  -28.9721   -4.0220   30.8978 C   0  0  0  0  0  0  0  0  0  0  0  0
  -29.0846   -2.9546   30.1433 C   0  0  0  0  0  0  0  0  0  0  0  0
  -27.9303   -4.8391   30.7956 O   0  0  0  0  0  0  0  0  0  0  0  0
  -28.1112    3.3679   29.5962 C   0  0  0  0  0  0  0  0  0  0  0  0
  -28.0749    4.1798   28.6877 O   0  0  0  0  0  0  0  0  0  0  0  0
  -28.0340    3.7129   30.8702 O   0  0  0  0  0  0  0  0  0  0  0  0
  5 11  1  0
 11 12  2  0
 11 13  1  0
  9 14  1  0
  8 15  1  0
 15 16  1  0
 20 22  1  0
 10 23  1  0
 23 24  2  0
 23 25  1  0
  3  4  1  0
  4  5  2  0
  5  6  1  0
  6  7  2  0
  7  2  1  0
  1  2  2  0
  2  3  1  0
  3 10  2  0
 10  9  1  0
  9  8  2  0
  8  1  1  0
 16 17  2  0
 17 18  1  0
 18 19  2  0
 19 20  1  0
 20 21  2  0
 21 16  1  0
M  END

$$$$
