No_2789-gen_results/8p0m/2024-11-27-11-27-31/
     RDKit          3D

 17 19  0  0  0  0  0  0  0  0999 V2000
  -28.0162   -0.8135   28.8779 C   0  0  0  0  0  0  0  0  0  0  0  0
  -27.0636   -0.1189   28.6079 C   0  0  0  0  0  0  0  0  0  0  0  0
  -26.9716    0.7139   27.5060 C   0  0  0  0  0  0  0  0  0  0  0  0
  -28.1053    0.7744   26.6421 C   0  0  0  0  0  0  0  0  0  0  0  0
  -29.2041    0.1179   27.0477 C   0  0  0  0  0  0  0  0  0  0  0  0
  -29.2127   -0.6088   28.1281 C   0  0  0  0  0  0  0  0  0  0  0  0
  -25.7106    1.4519   27.1380 C   0  0  0  0  0  0  0  0  0  0  0  0
  -25.2074    2.4128   27.9320 C   0  0  0  0  0  0  0  0  0  0  0  0
  -24.2878    2.8213   28.1828 C   0  0  0  0  0  0  0  0  0  0  0  0
  -23.0796    2.2449   27.3693 C   0  0  0  0  0  0  0  0  0  0  0  0
  -21.7549    2.3885   27.7887 C   0  0  0  0  0  0  0  0  0  0  0  0
  -24.4503    0.5157   27.0426 C   0  0  0  0  0  0  0  0  0  0  0  0
  -23.3068    0.8671   27.2837 C   0  0  0  0  0  0  0  0  0  0  0  0
  -25.8434    2.0318   25.6773 C   0  0  0  0  0  0  0  0  0  0  0  0
  -28.0115    1.6046   25.4602 C   0  0  0  0  0  0  0  0  0  0  0  0
  -26.9026    2.1350   25.0512 N   0  0  0  0  0  0  0  0  0  0  0  0
  -29.0565    1.6651   24.7911 O   0  0  0  0  0  0  0  0  0  0  0  0
  3  7  1  0
  7  8  1  0
  9 10  1  0
 10 11  1  0
  7 12  1  0
 10 13  1  0
 12 13  1  0
  7 14  1  0
  4 15  1  0
 14 16  1  0
 15 16  1  0
 15 17  2  0
  8  9  1  0
  1  2  2  0
  2  3  1  0
  3  4  2  0
  4  5  1  0
  5  6  2  0
  6  1  1  0
M  END

$$$$
