No_226-gen_results/8p0m/2024-11-27-11-27-31/
     RDKit          3D

 20 21  0  0  0  0  0  0  0  0999 V2000
  -28.0162   -0.8135   28.8779 C   0  0  0  0  0  0  0  0  0  0  0  0
  -28.4690   -0.7850   29.8287 C   0  0  0  0  0  0  0  0  0  0  0  0
  -26.5042   -0.7777   28.8766 C   0  0  0  0  0  0  0  0  0  0  0  0
  -25.8103   -0.8531   30.1028 C   0  0  0  0  0  0  0  0  0  0  0  0
  -27.9906   -0.8916   31.2257 C   0  0  0  0  0  0  0  0  0  0  0  0
  -26.6042   -0.8676   31.2652 C   0  0  0  0  0  0  0  0  0  0  0  0
  -30.2937   -0.8377   29.8355 Cl  0  0  0  0  0  0  0  0  0  0  0  0
  -24.3700   -0.8208   30.1393 C   0  0  0  0  0  0  0  0  0  0  0  0
  -23.7914    0.5375   30.1250 C   0  0  0  0  0  0  0  0  0  0  0  0
  -24.1925    1.5531   30.5907 C   0  0  0  0  0  0  0  0  0  0  0  0
  -25.4460    1.6095   31.2980 C   0  0  0  0  0  0  0  0  0  0  0  0
  -25.7993    2.9878   31.8186 C   0  0  0  0  0  0  0  0  0  0  0  0
  -25.1969    4.0094   31.3112 C   0  0  0  0  0  0  0  0  0  0  0  0
  -24.1657    3.9470   30.4189 C   0  0  0  0  0  0  0  0  0  0  0  0
  -23.6274    2.7777   30.0878 C   0  0  0  0  0  0  0  0  0  0  0  0
  -22.4113    0.4018   29.4179 C   0  0  0  0  0  0  0  0  0  0  0  0
  -21.7604   -0.6102   29.7544 F   0  0  0  0  0  0  0  0  0  0  0  0
  -22.6540    0.3656   28.0282 F   0  0  0  0  0  0  0  0  0  0  0  0
  -21.6050    1.4539   29.5108 F   0  0  0  0  0  0  0  0  0  0  0  0
  -25.8000   -0.7257   27.7644 F   0  0  0  0  0  0  0  0  0  0  0  0
  2  7  1  0
  4  8  1  0
  8  9  1  0
  9 16  1  0
 16 17  1  0
 16 18  1  0
 16 19  1  0
  3 20  1  0
  9 10  1  0
  1  2  2  0
  2  5  1  0
  5  6  2  0
  6  4  1  0
  4  3  2  0
  3  1  1  0
 10 11  2  0
 11 12  1  0
 12 13  2  0
 13 14  1  0
 14 15  2  0
 15 10  1  0
M  END

$$$$
