No_2298-gen_results/8p0m/2024-11-27-11-27-31/
     RDKit          3D

 11 11  0  0  0  0  0  0  0  0999 V2000
  -28.0162   -0.8135   28.8779 C   0  0  0  0  0  0  0  0  0  0  0  0
  -28.4690   -0.7850   29.8287 C   0  0  0  0  0  0  0  0  0  0  0  0
  -27.1356    0.2359   28.5352 C   0  0  0  0  0  0  0  0  0  0  0  0
  -26.8745    1.2825   29.3982 C   0  0  0  0  0  0  0  0  0  0  0  0
  -25.9742    2.3797   29.0831 C   0  0  0  0  0  0  0  0  0  0  0  0
  -28.3915    0.1302   30.9603 C   0  0  0  0  0  0  0  0  0  0  0  0
  -27.5035    1.2424   30.6700 C   0  0  0  0  0  0  0  0  0  0  0  0
  -25.3913    2.5625   28.0344 C   0  0  0  0  0  0  0  0  0  0  0  0
  -25.0519    1.5784   27.1632 C   0  0  0  0  0  0  0  0  0  0  0  0
  -24.0632    1.8137   26.1423 C   0  0  0  0  0  0  0  0  0  0  0  0
  -23.7571    3.0998   25.9129 C   0  0  0  0  0  0  0  0  0  0  0  0
  4  5  1  0
  5  8  2  3
  8  9  1  0
  9 10  1  0
 10 11  2  0
  1  2  2  0
  2  6  1  0
  6  7  2  0
  7  4  1  0
  4  3  2  0
  3  1  1  0
M  END

$$$$
