No_2103-gen_results/8p0m/2024-11-27-11-27-31/
     RDKit          3D

 13 14  0  0  0  0  0  0  0  0999 V2000
  -28.0162   -0.8135   28.8779 C   0  0  0  0  0  0  0  0  0  0  0  0
  -27.0636   -0.1189   28.6079 C   0  0  0  0  0  0  0  0  0  0  0  0
  -26.9716    0.7139   27.5060 C   0  0  0  0  0  0  0  0  0  0  0  0
  -28.1053    0.7744   26.6421 C   0  0  0  0  0  0  0  0  0  0  0  0
  -29.2008    0.1044   27.0527 C   0  0  0  0  0  0  0  0  0  0  0  0
  -29.2096   -0.6029   28.1853 C   0  0  0  0  0  0  0  0  0  0  0  0
  -30.5720    0.2423   26.0548 Cl  0  0  0  0  0  0  0  0  0  0  0  0
  -25.7026   -0.2359   29.4139 C   0  0  0  0  0  0  0  0  0  0  0  0
  -25.0591    0.9467   29.8046 C   0  0  0  0  0  0  0  0  0  0  0  0
  -24.2133    1.4514   28.6962 C   0  0  0  0  0  0  0  0  0  0  0  0
  -24.8554    2.3185   27.7285 C   0  0  0  0  0  0  0  0  0  0  0  0
  -24.0283    3.1880   26.9807 C   0  0  0  0  0  0  0  0  0  0  0  0
  -25.8657    1.5695   26.9192 C   0  0  0  0  0  0  0  0  0  0  0  0
  5  7  1  0
  2  8  1  0
  8  9  1  0
  9 10  1  0
 10 11  1  0
 11 12  2  0
  3 13  1  0
 11 13  1  0
  1  2  2  0
  2  3  1  0
  3  4  2  0
  4  5  1  0
  5  6  2  0
  6  1  1  0
M  END

$$$$
