No_2373-gen_results/8p0m/2024-11-27-11-27-31/
     RDKit          3D

 11 12  0  0  0  0  0  0  0  0999 V2000
  -28.1229   -1.3353   28.4874 O   0  0  0  0  0  0  0  0  0  0  0  0
  -27.4806   -0.4044   28.7094 C   0  0  0  0  0  0  0  0  0  0  0  0
  -27.2411    0.3910   29.5098 N   0  0  0  0  0  0  0  0  0  0  0  0
  -26.4066   -0.1069   27.4496 C   0  0  0  0  0  0  0  0  0  0  0  0
  -25.4358    0.8473   27.6341 C   0  0  0  0  0  0  0  0  0  0  0  0
  -24.3776    1.0448   26.7250 C   0  0  0  0  0  0  0  0  0  0  0  0
  -26.3503    1.4042   29.8115 C   0  0  0  0  0  0  0  0  0  0  0  0
  -25.3640    1.6490   28.8653 C   0  0  0  0  0  0  0  0  0  0  0  0
  -23.2774    1.9031   27.0428 C   0  0  0  0  0  0  0  0  0  0  0  0
  -23.2584    2.5600   28.2902 C   0  0  0  0  0  0  0  0  0  0  0  0
  -24.2596    2.4515   29.1375 C   0  0  0  0  0  0  0  0  0  0  0  0
  1  2  2  0
  2  3  1  0
  2  4  1  0
  4  5  1  0
  7  8  1  0
  3  7  1  0
  5  6  2  0
  6  9  1  0
  9 10  2  0
 10 11  1  0
 11  8  2  0
  8  5  1  0
M  END

$$$$
