No_2943-gen_results/8p0m/2024-11-27-11-27-31/
     RDKit          3D

 17 18  0  0  0  0  0  0  0  0999 V2000
  -28.0162   -0.8135   28.8779 C   0  0  0  0  0  0  0  0  0  0  0  0
  -27.0636   -0.1189   28.6079 C   0  0  0  0  0  0  0  0  0  0  0  0
  -25.7647   -0.3897   29.0360 C   0  0  0  0  0  0  0  0  0  0  0  0
  -25.5296   -1.5302   29.9014 C   0  0  0  0  0  0  0  0  0  0  0  0
  -26.6888   -2.2893   30.1810 C   0  0  0  0  0  0  0  0  0  0  0  0
  -27.8727   -1.9508   29.7373 C   0  0  0  0  0  0  0  0  0  0  0  0
  -24.6993    0.3604   28.7753 F   0  0  0  0  0  0  0  0  0  0  0  0
  -29.0333   -2.8145   30.1506 C   0  0  0  0  0  0  0  0  0  0  0  0
  -28.8903   -4.1007   30.3105 N   0  0  0  0  0  0  0  0  0  0  0  0
  -30.5274   -2.1363   30.3486 Cl  0  0  0  0  0  0  0  0  0  0  0  0
  -30.0103   -4.9397   30.4913 C   0  0  0  0  0  0  0  0  0  0  0  0
  -30.2678   -5.7131   31.1071 C   0  0  0  0  0  0  0  0  0  0  0  0
  -29.4363   -5.9446   32.4178 C   0  0  0  0  0  0  0  0  0  0  0  0
  -29.8560   -6.9704   33.3472 C   0  0  0  0  0  0  0  0  0  0  0  0
  -30.8139   -7.8194   32.9272 C   0  0  0  0  0  0  0  0  0  0  0  0
  -31.5438   -7.7273   31.7714 C   0  0  0  0  0  0  0  0  0  0  0  0
  -31.2390   -6.7010   30.9015 C   0  0  0  0  0  0  0  0  0  0  0  0
  3  7  1  0
  6  8  1  0
  8  9  1  0
  8 10  1  0
  9 11  1  0
 11 12  1  0
 12 13  2  0
 13 14  1  0
 14 15  2  0
 15 16  1  0
 16 17  2  0
 17 12  1  0
  1  2  2  0
  2  3  1  0
  3  4  2  0
  4  5  1  0
  5  6  2  0
  6  1  1  0
M  END

$$$$
