No_2001-gen_results/8p0m/2024-11-27-11-27-31/
     RDKit          3D

 17 18  0  0  0  0  0  0  0  0999 V2000
  -28.0162   -0.8135   28.8779 C   0  0  0  0  0  0  0  0  0  0  0  0
  -28.4690   -0.7850   29.8287 C   0  0  0  0  0  0  0  0  0  0  0  0
  -27.0871    0.2903   28.6377 C   0  0  0  0  0  0  0  0  0  0  0  0
  -26.2516    0.4114   27.4223 C   0  0  0  0  0  0  0  0  0  0  0  0
  -28.3913    0.1041   30.9805 C   0  0  0  0  0  0  0  0  0  0  0  0
  -27.5332    1.1666   30.7866 C   0  0  0  0  0  0  0  0  0  0  0  0
  -26.8281    1.2557   29.6454 C   0  0  0  0  0  0  0  0  0  0  0  0
  -26.1100    1.6187   27.1366 F   0  0  0  0  0  0  0  0  0  0  0  0
  -26.9261   -0.1211   26.3778 F   0  0  0  0  0  0  0  0  0  0  0  0
  -25.0595   -0.2091   27.5351 F   0  0  0  0  0  0  0  0  0  0  0  0
  -29.4567   -2.0263   30.2131 C   0  0  0  0  0  0  0  0  0  0  0  0
  -29.0056   -3.1794   30.4077 O   0  0  0  0  0  0  0  0  0  0  0  0
  -30.6639   -1.8431   30.3522 O   0  0  0  0  0  0  0  0  0  0  0  0
  -27.3225    2.1854   31.8420 C   0  0  0  0  0  0  0  0  0  0  0  0
  -26.5209    3.0304   31.7548 C   0  0  0  0  0  0  0  0  0  0  0  0
  -25.5360    3.2090   30.7041 C   0  0  0  0  0  0  0  0  0  0  0  0
  -25.7889    2.2236   29.6274 C   0  0  0  0  0  0  0  0  0  0  0  0
  3  4  1  0
  4  8  1  0
  4  9  1  0
  4 10  1  0
  2 11  1  0
 11 12  2  0
 11 13  1  0
  7 17  1  0
 17 16  2  0
 16 15  1  0
 15 14  2  0
 14  6  1  0
  1  2  2  0
  2  5  1  0
  5  6  2  0
  6  7  1  0
  7  3  2  0
  3  1  1  0
M  END

$$$$
