No_2822-gen_results/8p0m/2024-11-27-11-27-31/
     RDKit          3D

 35 39  0  0  0  0  0  0  0  0999 V2000
  -28.0162   -0.8135   28.8779 C   0  0  0  0  0  0  0  0  0  0  0  0
  -27.0636   -0.1190   28.6079 C   0  0  0  0  0  0  0  0  0  0  0  0
  -27.0010    0.6913   27.4910 C   0  0  0  0  0  0  0  0  0  0  0  0
  -25.8548    1.4825   27.0830 C   0  0  0  0  0  0  0  0  0  0  0  0
  -25.8227    2.3296   25.9941 C   0  0  0  0  0  0  0  0  0  0  0  0
  -27.9874   -1.6326   30.1036 C   0  0  0  0  0  0  0  0  0  0  0  0
  -26.7767   -1.8328   30.7473 C   0  0  0  0  0  0  0  0  0  0  0  0
  -25.6300   -1.2164   30.3057 C   0  0  0  0  0  0  0  0  0  0  0  0
  -25.7324   -0.3480   29.1642 C   0  0  0  0  0  0  0  0  0  0  0  0
  -24.6572    3.1231   25.8253 C   0  0  0  0  0  0  0  0  0  0  0  0
  -23.5018    2.8953   26.5706 C   0  0  0  0  0  0  0  0  0  0  0  0
  -23.5102    1.9492   27.5472 C   0  0  0  0  0  0  0  0  0  0  0  0
  -24.6493    1.2327   27.8417 C   0  0  0  0  0  0  0  0  0  0  0  0
  -24.5734    0.3631   28.7546 C   0  0  0  0  0  0  0  0  0  0  0  0
  -28.2160    0.9189   26.6834 C   0  0  0  0  0  0  0  0  0  0  0  0
  -28.4232    0.2569   25.7572 O   0  0  0  0  0  0  0  0  0  0  0  0
  -29.1001    1.8558   27.1026 N   0  0  0  0  0  0  0  0  0  0  0  0
  -30.2654    2.1878   26.6067 C   0  0  0  0  0  0  0  0  0  0  0  0
  -22.2251    1.7886   28.2738 C   0  0  0  0  0  0  0  0  0  0  0  0
  -22.1361    0.8238   29.2125 N   0  0  0  0  0  0  0  0  0  0  0  0
  -23.3061    0.0644   29.5200 C   0  0  0  0  0  0  0  0  0  0  0  0
  -29.2207   -2.3474   30.5191 C   0  0  0  0  0  0  0  0  0  0  0  0
  -29.2495   -3.5331   30.5803 O   0  0  0  0  0  0  0  0  0  0  0  0
  -30.3849   -1.7233   30.4156 O   0  0  0  0  0  0  0  0  0  0  0  0
  -31.2283    2.2230   26.9136 C   0  0  0  0  0  0  0  0  0  0  0  0
  -31.5406    1.8996   28.3701 C   0  0  0  0  0  0  0  0  0  0  0  0
  -30.5187    2.1629   29.2626 C   0  0  0  0  0  0  0  0  0  0  0  0
  -29.1379    2.1421   28.6551 C   0  0  0  0  0  0  0  0  0  0  0  0
  -30.6182    2.1053   30.6967 C   0  0  0  0  0  0  0  0  0  0  0  0
  -29.6413    2.3586   31.4153 N   0  0  0  0  0  0  0  0  0  0  0  0
  -31.7178    1.8333   31.1857 O   0  0  0  0  0  0  0  0  0  0  0  0
  -29.6288    2.2790   32.8925 C   0  0  0  0  0  0  0  0  0  0  0  0
  -28.9861    2.8538   33.4967 C   0  0  0  0  0  0  0  0  0  0  0  0
  -28.8963    2.7836   35.0096 C   0  0  0  0  0  0  0  0  0  0  0  0
  -29.7176    1.8363   35.6306 C   0  0  0  0  0  0  0  0  0  0  0  0
  1  2  1  0
  2  3  2  0
  3  4  1  0
  4  5  2  0
  1  6  1  0
  6  7  2  0
  7  8  1  0
  2  9  1  0
  8  9  1  0
  5 10  1  0
 10 11  2  0
 11 12  1  0
  4 13  1  0
 12 13  2  0
  9 14  1  0
 13 14  1  0
  3 15  1  0
 15 16  2  0
 15 17  1  0
 17 18  1  0
 12 19  1  0
 19 20  1  0
 14 21  1  0
 20 21  2  0
  6 22  1  0
 22 23  2  0
 22 24  1  0
 18 25  2  0
 25 26  1  0
 26 27  2  0
 17 28  1  0
 27 28  1  0
 27 29  1  0
 29 30  1  0
 29 31  2  0
 30 32  1  0
 32 33  2  3
 33 34  1  0
 34 35  2  0
M  END

$$$$
