No_2046-gen_results/8p0m/2024-11-27-11-27-31/
     RDKit          3D

 35 38  0  0  0  0  0  0  0  0999 V2000
  -28.0162   -0.8135   28.8779 C   0  0  0  0  0  0  0  0  0  0  0  0
  -28.4690   -0.7850   29.8287 C   0  0  0  0  0  0  0  0  0  0  0  0
  -27.1356    0.2359   28.5352 C   0  0  0  0  0  0  0  0  0  0  0  0
  -26.8745    1.2825   29.3982 C   0  0  0  0  0  0  0  0  0  0  0  0
  -25.9742    2.3797   29.0831 C   0  0  0  0  0  0  0  0  0  0  0  0
  -28.3915    0.1302   30.9603 C   0  0  0  0  0  0  0  0  0  0  0  0
  -27.5035    1.2424   30.6700 C   0  0  0  0  0  0  0  0  0  0  0  0
  -25.3088    2.5177   28.0535 C   0  0  0  0  0  0  0  0  0  0  0  0
  -24.5555    1.5624   27.4910 C   0  0  0  0  0  0  0  0  0  0  0  0
  -23.4999    1.4263   27.5046 C   0  0  0  0  0  0  0  0  0  0  0  0
  -22.4597    1.3412   28.1970 C   0  0  0  0  0  0  0  0  0  0  0  0
  -22.6198    0.9123   29.5495 C   0  0  0  0  0  0  0  0  0  0  0  0
  -25.9537    3.4870   30.2203 C   0  0  0  0  0  0  0  0  0  0  0  0
  -26.0987    4.8508   29.8067 C   0  0  0  0  0  0  0  0  0  0  0  0
  -25.4481    5.1182   28.5053 C   0  0  0  0  0  0  0  0  0  0  0  0
  -25.1166    3.9705   27.6391 C   0  0  0  0  0  0  0  0  0  0  0  0
  -26.2247    5.8784   30.7133 C   0  0  0  0  0  0  0  0  0  0  0  0
  -25.4783    6.6591   30.9505 O   0  0  0  0  0  0  0  0  0  0  0  0
  -27.5259    5.9277   31.2118 N   0  0  0  0  0  0  0  0  0  0  0  0
  -27.9238    6.9629   32.1713 C   0  0  0  0  0  0  0  0  0  0  0  0
  -28.9856    7.1490   32.4461 C   0  0  0  0  0  0  0  0  0  0  0  0
  -29.7228    8.0295   32.1526 C   0  0  0  0  0  0  0  0  0  0  0  0
  -29.1082    9.3835   31.9012 C   0  0  0  0  0  0  0  0  0  0  0  0
  -27.7129    9.2867   31.7180 C   0  0  0  0  0  0  0  0  0  0  0  0
  -26.7348    7.3515   32.9514 C   0  0  0  0  0  0  0  0  0  0  0  0
  -27.1581   10.6705   31.2334 C   0  0  0  0  0  0  0  0  0  0  0  0
  -25.8557    6.8293   33.6018 C   0  0  0  0  0  0  0  0  0  0  0  0
  -26.6490    8.9522   32.6704 C   0  0  0  0  0  0  0  0  0  0  0  0
  -26.0486   10.7010   30.6372 C   0  0  0  0  0  0  0  0  0  0  0  0
  -25.1902    9.7997   30.5304 C   0  0  0  0  0  0  0  0  0  0  0  0
  -23.9497   10.0385   29.7292 C   0  0  0  0  0  0  0  0  0  0  0  0
  -23.7494   11.2003   29.2135 C   0  0  0  0  0  0  0  0  0  0  0  0
  -25.6352   11.9684   29.9171 C   0  0  0  0  0  0  0  0  0  0  0  0
  -24.5829   12.1966   29.2680 C   0  0  0  0  0  0  0  0  0  0  0  0
  -24.9755    7.3931   34.5049 C   0  0  0  0  0  0  0  0  0  0  0  0
  4  5  1  0
  8  9  1  0
  9 10  2  3
 10 11  1  0
 11 12  2  0
 14 17  1  0
 17 18  2  0
 17 19  1  0
 19 20  1  0
 20 21  2  0
 21 22  1  0
 22 23  2  0
 23 24  1  0
 20 25  1  0
 24 26  1  0
 25 27  2  3
 24 28  1  0
 25 28  1  0
 26 29  1  0
 27 35  1  0
 29 30  2  0
 30 31  1  0
 31 32  2  0
 32 34  1  0
 34 33  2  0
 33 29  1  0
  1  2  2  0
  2  6  1  0
  6  7  2  0
  7  4  1  0
  4  3  2  0
  3  1  1  0
  5  8  2  0
  8 16  1  0
 16 15  2  0
 15 14  1  0
 14 13  2  0
 13  5  1  0
M  END

$$$$
