No_2242-gen_results/8p0m/2024-11-27-11-27-31/
     RDKit          3D

 35 38  0  0  0  0  0  0  0  0999 V2000
  -28.0162   -0.8135   28.8779 C   0  0  0  0  0  0  0  0  0  0  0  0
  -28.4690   -0.7850   29.8287 C   0  0  0  0  0  0  0  0  0  0  0  0
  -27.0871    0.2903   28.6377 C   0  0  0  0  0  0  0  0  0  0  0  0
  -26.2516    0.4114   27.4223 C   0  0  0  0  0  0  0  0  0  0  0  0
  -28.3913    0.1041   30.9805 C   0  0  0  0  0  0  0  0  0  0  0  0
  -27.5332    1.1666   30.7866 C   0  0  0  0  0  0  0  0  0  0  0  0
  -26.8281    1.2557   29.6454 C   0  0  0  0  0  0  0  0  0  0  0  0
  -25.6444    1.6653   27.2216 C   0  0  0  0  0  0  0  0  0  0  0  0
  -25.4280    2.5904   28.2367 C   0  0  0  0  0  0  0  0  0  0  0  0
  -26.1083    2.4673   29.4212 C   0  0  0  0  0  0  0  0  0  0  0  0
  -25.8894    3.5298   30.4285 C   0  0  0  0  0  0  0  0  0  0  0  0
  -25.1194    3.3074   31.3395 O   0  0  0  0  0  0  0  0  0  0  0  0
  -26.6359    4.5746   30.3667 O   0  0  0  0  0  0  0  0  0  0  0  0
  -29.6552   -2.1402   30.3316 Cl  0  0  0  0  0  0  0  0  0  0  0  0
  -26.6131    5.5008   31.3048 C   0  0  0  0  0  0  0  0  0  0  0  0
  -27.5598    6.4769   31.2136 C   0  0  0  0  0  0  0  0  0  0  0  0
  -27.5760    7.5039   32.2184 C   0  0  0  0  0  0  0  0  0  0  0  0
  -28.5114    8.5675   32.1820 C   0  0  0  0  0  0  0  0  0  0  0  0
  -28.5513    9.5565   33.1646 C   0  0  0  0  0  0  0  0  0  0  0  0
  -27.6100    9.4541   34.2205 C   0  0  0  0  0  0  0  0  0  0  0  0
  -26.6909    8.4275   34.2845 C   0  0  0  0  0  0  0  0  0  0  0  0
  -26.6350    7.4215   33.2617 C   0  0  0  0  0  0  0  0  0  0  0  0
  -29.4817   10.5374   32.8825 C   0  0  0  0  0  0  0  0  0  0  0  0
  -30.4051   10.6236   32.3031 O   0  0  0  0  0  0  0  0  0  0  0  0
  -29.3130   11.6013   33.8990 N   0  0  0  0  0  0  0  0  0  0  0  0
  -30.1941   12.7368   33.8820 C   0  0  0  0  0  0  0  0  0  0  0  0
  -30.9489   13.1707   33.1863 C   0  0  0  0  0  0  0  0  0  0  0  0
  -31.7313   14.3420   33.3439 C   0  0  0  0  0  0  0  0  0  0  0  0
  -31.4904   15.0722   34.5394 C   0  0  0  0  0  0  0  0  0  0  0  0
  -30.5686   14.5984   35.4376 C   0  0  0  0  0  0  0  0  0  0  0  0
  -29.8365   13.4660   35.2067 C   0  0  0  0  0  0  0  0  0  0  0  0
  -32.2734   16.2904   34.7694 C   0  0  0  0  0  0  0  0  0  0  0  0
  -31.9444   16.9841   35.6619 O   0  0  0  0  0  0  0  0  0  0  0  0
  -33.2876   16.5388   33.9611 N   0  0  0  0  0  0  0  0  0  0  0  0
  -34.0948   17.7161   34.1745 C   0  0  0  0  0  0  0  0  0  0  0  0
 10 11  1  0
 11 12  2  0
 11 13  1  0
  2 14  1  0
 13 15  1  0
 15 16  2  3
 16 17  1  0
 19 23  1  0
 23 24  2  0
 23 25  1  0
 25 26  1  0
 29 32  1  0
 32 33  1  0
 32 34  1  0
 34 35  1  0
 17 18  2  0
 18 19  1  0
 19 20  2  0
 20 21  1  0
 21 22  2  0
 22 17  1  0
 26 27  2  0
 27 28  1  0
 28 29  2  0
 29 30  1  0
 30 31  2  0
 31 26  1  0
  1  2  2  0
  2  5  1  0
  5  6  2  0
  6  7  1  0
  3  1  1  0
  3  4  2  0
  4  8  1  0
  8  9  2  0
  9 10  1  0
 10  7  2  0
  7  3  1  0
M  END

$$$$
