No_2185-gen_results/8p0m/2024-11-27-11-27-31/
     RDKit          3D

 17 19  0  0  0  0  0  0  0  0999 V2000
  -28.0162   -0.8135   28.8779 C   0  0  0  0  0  0  0  0  0  0  0  0
  -28.4690   -0.7850   29.8287 C   0  0  0  0  0  0  0  0  0  0  0  0
  -27.1356    0.2359   28.5352 C   0  0  0  0  0  0  0  0  0  0  0  0
  -26.8745    1.2825   29.3982 C   0  0  0  0  0  0  0  0  0  0  0  0
  -28.3613    0.1987   30.9244 C   0  0  0  0  0  0  0  0  0  0  0  0
  -27.5277    1.2234   30.6356 C   0  0  0  0  0  0  0  0  0  0  0  0
  -26.3987    0.2949   27.2279 C   0  0  0  0  0  0  0  0  0  0  0  0
  -25.1481    0.1287   27.3794 N   0  0  0  0  0  0  0  0  0  0  0  0
  -27.0030    0.4900   26.0157 C   0  0  0  0  0  0  0  0  0  0  0  0
  -26.1105    0.2618   25.0609 N   0  0  0  0  0  0  0  0  0  0  0  0
  -24.8506    0.1265   25.8510 C   0  0  0  0  0  0  0  0  0  0  0  0
  -24.1606   -0.0066   28.2200 C   0  0  0  0  0  0  0  0  0  0  0  0
  -23.9607   -1.1333   28.9774 C   0  0  0  0  0  0  0  0  0  0  0  0
  -23.3424    1.1424   28.4371 C   0  0  0  0  0  0  0  0  0  0  0  0
  -22.2436    1.0839   29.3920 C   0  0  0  0  0  0  0  0  0  0  0  0
  -22.9346   -1.1556   30.0023 C   0  0  0  0  0  0  0  0  0  0  0  0
  -22.1270   -0.0321   30.1923 C   0  0  0  0  0  0  0  0  0  0  0  0
  3  7  1  0
  7  8  1  0
  7  9  1  0
  9 10  2  0
  8 11  1  0
 10 11  1  0
  8 12  1  0
  1  2  2  0
  2  5  1  0
  5  6  2  0
  6  4  1  0
  4  3  2  0
  3  1  1  0
 12 13  2  0
 13 16  1  0
 16 17  2  0
 17 15  1  0
 15 14  2  0
 14 12  1  0
M  END

$$$$
