No_2924-gen_results/8p0m/2024-11-27-11-27-31/
     RDKit          3D

 22 23  0  0  0  0  0  0  0  0999 V2000
  -28.0162   -0.8135   28.8779 C   0  0  0  0  0  0  0  0  0  0  0  0
  -28.4690   -0.7850   29.8287 C   0  0  0  0  0  0  0  0  0  0  0  0
  -27.1356    0.2359   28.5352 C   0  0  0  0  0  0  0  0  0  0  0  0
  -26.8745    1.2825   29.3982 C   0  0  0  0  0  0  0  0  0  0  0  0
  -27.5070    1.2380   30.6295 C   0  0  0  0  0  0  0  0  0  0  0  0
  -28.3293    0.1745   30.9350 C   0  0  0  0  0  0  0  0  0  0  0  0
  -26.4077    0.3070   27.2259 C   0  0  0  0  0  0  0  0  0  0  0  0
  -25.7129    1.4905   26.9212 C   0  0  0  0  0  0  0  0  0  0  0  0
  -25.4301    2.4538   27.8655 C   0  0  0  0  0  0  0  0  0  0  0  0
  -26.0916    2.4163   29.0923 C   0  0  0  0  0  0  0  0  0  0  0  0
  -25.8331    3.5594   30.0163 C   0  0  0  0  0  0  0  0  0  0  0  0
  -25.1409    3.3626   30.9850 O   0  0  0  0  0  0  0  0  0  0  0  0
  -26.6029    4.5799   29.9046 O   0  0  0  0  0  0  0  0  0  0  0  0
  -26.4116    5.6216   30.7022 C   0  0  0  0  0  0  0  0  0  0  0  0
  -25.9689    6.8547   30.1284 C   0  0  0  0  0  0  0  0  0  0  0  0
  -25.6905    6.7656   28.9588 O   0  0  0  0  0  0  0  0  0  0  0  0
  -25.6918    5.9889   28.1796 C   0  0  0  0  0  0  0  0  0  0  0  0
  -26.2659    7.8377   30.5554 C   0  0  0  0  0  0  0  0  0  0  0  0
  -27.0735    8.2143   31.6382 C   0  0  0  0  0  0  0  0  0  0  0  0
  -27.2886    9.4813   32.2181 C   0  0  0  0  0  0  0  0  0  0  0  0
  -26.6533   10.5486   31.5498 C   0  0  0  0  0  0  0  0  0  0  0  0
  -25.7925   10.3671   30.4867 C   0  0  0  0  0  0  0  0  0  0  0  0
 10 11  1  0
 11 12  2  0
 11 13  1  0
 13 14  1  0
 14 15  1  0
 15 16  1  0
 16 17  1  0
 15 18  1  0
 18 19  2  3
 19 20  1  0
 20 21  2  3
 21 22  1  0
  4 10  2  0
 10  9  1  0
  9  8  2  0
  8  7  1  0
  7  3  2  0
  1  2  2  0
  2  6  1  0
  6  5  2  0
  5  4  1  0
  4  3  1  0
  3  1  1  0
M  END

$$$$
