No_2035-gen_results/8p0m/2024-11-27-11-27-31/
     RDKit          3D

 34 36  0  0  0  0  0  0  0  0999 V2000
  -28.0162   -0.8135   28.8779 C   0  0  0  0  0  0  0  0  0  0  0  0
  -27.0636   -0.1190   28.6079 C   0  0  0  0  0  0  0  0  0  0  0  0
  -26.9716    0.7139   27.5060 C   0  0  0  0  0  0  0  0  0  0  0  0
  -25.8205    1.4909   27.1160 C   0  0  0  0  0  0  0  0  0  0  0  0
  -24.6562    1.4242   27.9180 C   0  0  0  0  0  0  0  0  0  0  0  0
  -24.6847    0.5901   29.0659 C   0  0  0  0  0  0  0  0  0  0  0  0
  -25.8099   -0.1266   29.3338 C   0  0  0  0  0  0  0  0  0  0  0  0
  -28.7093   -0.4588   30.1754 C   0  0  0  0  0  0  0  0  0  0  0  0
  -28.6702    0.3803   30.7522 O   0  0  0  0  0  0  0  0  0  0  0  0
  -29.2296   -1.6981   30.7670 N   0  0  0  0  0  0  0  0  0  0  0  0
  -23.4734    2.2105   27.6035 C   0  0  0  0  0  0  0  0  0  0  0  0
  -23.3029    2.7797   26.5347 O   0  0  0  0  0  0  0  0  0  0  0  0
  -22.3679    2.0820   28.3996 O   0  0  0  0  0  0  0  0  0  0  0  0
  -29.9461   -1.6206   32.0881 C   0  0  0  0  0  0  0  0  0  0  0  0
  -29.1896   -2.9954   30.2490 C   0  0  0  0  0  0  0  0  0  0  0  0
  -28.2452   -3.8271   31.0408 C   0  0  0  0  0  0  0  0  0  0  0  0
  -28.9362   -4.3286   31.9713 F   0  0  0  0  0  0  0  0  0  0  0  0
  -27.1638   -3.2748   31.4456 F   0  0  0  0  0  0  0  0  0  0  0  0
  -27.7915   -4.8449   30.1557 F   0  0  0  0  0  0  0  0  0  0  0  0
  -28.1167    0.8310   26.5850 C   0  0  0  0  0  0  0  0  0  0  0  0
  -29.1111    1.7283   26.8574 C   0  0  0  0  0  0  0  0  0  0  0  0
  -28.8537    2.8574   27.4722 C   0  0  0  0  0  0  0  0  0  0  0  0
  -29.4563    3.7142   27.9060 C   0  0  0  0  0  0  0  0  0  0  0  0
  -29.0553    4.9920   28.5685 C   0  0  0  0  0  0  0  0  0  0  0  0
  -27.6766    5.2331   28.6098 C   0  0  0  0  0  0  0  0  0  0  0  0
  -26.7982    4.3074   28.0811 C   0  0  0  0  0  0  0  0  0  0  0  0
  -27.3116    3.1920   27.5566 C   0  0  0  0  0  0  0  0  0  0  0  0
  -26.5417    2.6203   26.8668 N   0  0  0  0  0  0  0  0  0  0  0  0
  -30.1586    1.7406   25.7191 C   0  0  0  0  0  0  0  0  0  0  0  0
  -31.3689    2.7347   25.2251 Br  0  0  0  0  0  0  0  0  0  0  0  0
  -30.3772    0.3152   25.1646 C   0  0  0  0  0  0  0  0  0  0  0  0
  -31.4318   -0.3759   25.5732 C   0  0  0  0  0  0  0  0  0  0  0  0
  -31.5623   -1.7202   25.0141 C   0  0  0  0  0  0  0  0  0  0  0  0
  -30.5311   -2.0563   24.1550 N   0  0  0  0  0  0  0  0  0  0  0  0
  1  2  2  3
  2  3  1  0
  3  4  1  0
  4  5  1  0
  5  6  1  0
  2  7  1  0
  6  7  1  0
  1  8  1  0
  8  9  2  0
  8 10  1  0
  5 11  1  0
 11 12  2  0
 11 13  1  0
 10 14  1  0
 10 15  1  0
 15 16  1  0
 16 17  1  0
 16 18  1  0
 16 19  1  0
  3 20  1  0
 20 21  1  0
  4 28  1  0
 21 29  1  0
 29 30  1  0
 29 31  1  0
 31 32  2  3
 32 33  1  0
 33 34  2  0
 21 22  1  0
 28 27  1  0
 22 23  2  0
 23 24  1  0
 24 25  2  0
 25 26  1  0
 26 27  2  0
 27 22  1  0
M  END

$$$$
