No_2884-gen_results/8p0m/2024-11-27-11-27-31/
     RDKit          3D

 21 22  0  0  0  0  0  0  0  0999 V2000
  -28.1229   -1.3353   28.4874 O   0  0  0  0  0  0  0  0  0  0  0  0
  -27.4806   -0.4044   28.7094 C   0  0  0  0  0  0  0  0  0  0  0  0
  -27.2412    0.3910   29.5098 N   0  0  0  0  0  0  0  0  0  0  0  0
  -26.4066   -0.1069   27.4496 C   0  0  0  0  0  0  0  0  0  0  0  0
  -25.4358    0.8473   27.6341 C   0  0  0  0  0  0  0  0  0  0  0  0
  -25.4245    1.6272   28.7628 C   0  0  0  0  0  0  0  0  0  0  0  0
  -24.3571    2.6471   28.9675 C   0  0  0  0  0  0  0  0  0  0  0  0
  -26.3233    1.3740   29.8174 C   0  0  0  0  0  0  0  0  0  0  0  0
  -23.3305    2.6168   28.9466 O   0  0  0  0  0  0  0  0  0  0  0  0
  -24.9753    3.8267   29.3662 O   0  0  0  0  0  0  0  0  0  0  0  0
  -28.1900    0.0965   30.7651 C   0  0  0  0  0  0  0  0  0  0  0  0
  -29.4616    0.2485   30.5466 C   0  0  0  0  0  0  0  0  0  0  0  0
  -29.9191    1.3283   30.0025 C   0  0  0  0  0  0  0  0  0  0  0  0
  -29.6112    2.4885   30.6339 C   0  0  0  0  0  0  0  0  0  0  0  0
  -30.1005    3.8100   30.1332 C   0  0  0  0  0  0  0  0  0  0  0  0
  -30.8606    3.7940   28.9792 C   0  0  0  0  0  0  0  0  0  0  0  0
  -31.1836    2.5987   28.3474 C   0  0  0  0  0  0  0  0  0  0  0  0
  -30.7300    1.4043   28.8593 C   0  0  0  0  0  0  0  0  0  0  0  0
  -30.3142   -0.8677   30.7905 C   0  0  0  0  0  0  0  0  0  0  0  0
  -31.3503   -1.2011   30.4424 C   0  0  0  0  0  0  0  0  0  0  0  0
  -32.1280   -2.2974   30.8566 C   0  0  0  0  0  0  0  0  0  0  0  0
  1  2  2  0
  2  3  1  0
  2  4  1  0
  5  6  1  0
  6  7  1  0
  3  8  1  0
  6  8  1  0
  7  9  2  0
  7 10  1  0
  3 11  1  0
 11 12  1  0
 12 13  1  0
 12 19  1  0
 19 20  2  3
 20 21  1  0
  4  5  1  0
 13 14  2  0
 14 15  1  0
 15 16  2  0
 16 17  1  0
 17 18  2  0
 18 13  1  0
M  END

$$$$
