No_2549-gen_results/8p0m/2024-11-27-11-27-31/
     RDKit          3D

 10 10  0  0  0  0  0  0  0  0999 V2000
  -28.1229   -1.3353   28.4874 O   0  0  0  0  0  0  0  0  0  0  0  0
  -27.4806   -0.4044   28.7094 C   0  0  0  0  0  0  0  0  0  0  0  0
  -27.1904    0.2460   29.5268 C   0  0  0  0  0  0  0  0  0  0  0  0
  -26.8157    0.1371   27.4262 N   0  0  0  0  0  0  0  0  0  0  0  0
  -27.5787    0.0639   30.8960 C   0  0  0  0  0  0  0  0  0  0  0  0
  -25.8899    1.1418   27.4087 C   0  0  0  0  0  0  0  0  0  0  0  0
  -25.6606    1.7775   28.6061 C   0  0  0  0  0  0  0  0  0  0  0  0
  -26.1852    1.3885   29.6914 C   0  0  0  0  0  0  0  0  0  0  0  0
  -27.2291    0.3290   31.9089 C   0  0  0  0  0  0  0  0  0  0  0  0
  -26.2990    1.5110   32.0132 C   0  0  0  0  0  0  0  0  0  0  0  0
  1  2  2  0
  2  3  1  0
  2  4  1  0
  3  5  1  0
  6  7  1  0
  3  8  1  0
  5  9  2  3
  9 10  1  0
  8  7  1  0
  6  4  1  0
M  END

$$$$
