No_2945-gen_results/8p0m/2024-11-27-11-27-31/
     RDKit          3D

 15 17  0  0  0  0  0  0  0  0999 V2000
  -28.1493   -0.8198   28.9079 Cl  0  0  0  0  0  0  0  0  0  0  0  0
  -27.8339    0.4961   29.0598 C   0  0  0  0  0  0  0  0  0  0  0  0
  -27.5135    1.2383   28.0485 C   0  0  0  0  0  0  0  0  0  0  0  0
  -27.4902    0.6482   26.7008 C   0  0  0  0  0  0  0  0  0  0  0  0
  -26.9011    1.1408   25.5350 C   0  0  0  0  0  0  0  0  0  0  0  0
  -26.3688    2.4667   25.6553 C   0  0  0  0  0  0  0  0  0  0  0  0
  -26.4093    3.2084   26.8349 C   0  0  0  0  0  0  0  0  0  0  0  0
  -26.8991    2.6051   28.0022 C   0  0  0  0  0  0  0  0  0  0  0  0
  -26.8012    0.7062   30.1754 C   0  0  0  0  0  0  0  0  0  0  0  0
  -26.7701    0.0246   31.2311 C   0  0  0  0  0  0  0  0  0  0  0  0
  -25.8492    0.2527   32.3570 C   0  0  0  0  0  0  0  0  0  0  0  0
  -25.0165    1.3981   32.2808 C   0  0  0  0  0  0  0  0  0  0  0  0
  -25.0780    2.2321   31.1008 C   0  0  0  0  0  0  0  0  0  0  0  0
  -25.9806    1.9267   30.1013 C   0  0  0  0  0  0  0  0  0  0  0  0
  -26.0262    2.8149   28.9674 C   0  0  0  0  0  0  0  0  0  0  0  0
  1  2  1  0
  2  3  2  0
  8 15  2  0
 15 14  1  0
  9  2  1  0
  3  4  1  0
  4  5  2  0
  5  6  1  0
  6  7  2  0
  7  8  1  0
  8  3  1  0
  9 10  2  0
 10 11  1  0
 11 12  2  0
 12 13  1  0
 13 14  2  0
 14  9  1  0
M  END

$$$$
