No_2542-gen_results/8p0m/2024-11-27-11-27-31/
     RDKit          3D

 30 31  0  0  0  0  0  0  0  0999 V2000
  -28.0162   -0.8135   28.8779 C   0  0  0  0  0  0  0  0  0  0  0  0
  -27.0636   -0.1189   28.6079 C   0  0  0  0  0  0  0  0  0  0  0  0
  -26.8756    1.1325   28.9134 C   0  0  0  0  0  0  0  0  0  0  0  0
  -25.6883    1.9515   28.5672 C   0  0  0  0  0  0  0  0  0  0  0  0
  -24.6394    1.2834   27.8753 C   0  0  0  0  0  0  0  0  0  0  0  0
  -24.8068   -0.0513   27.6040 C   0  0  0  0  0  0  0  0  0  0  0  0
  -25.9019   -0.7670   27.9511 C   0  0  0  0  0  0  0  0  0  0  0  0
  -28.0611   -1.4288   30.2827 C   0  0  0  0  0  0  0  0  0  0  0  0
  -28.9549   -2.3242   30.5042 O   0  0  0  0  0  0  0  0  0  0  0  0
  -27.5247   -0.8356   31.2181 O   0  0  0  0  0  0  0  0  0  0  0  0
  -23.4180    1.9697   27.5026 C   0  0  0  0  0  0  0  0  0  0  0  0
  -23.3089    2.7213   26.6527 O   0  0  0  0  0  0  0  0  0  0  0  0
  -22.3294    1.8085   28.3684 O   0  0  0  0  0  0  0  0  0  0  0  0
  -25.5401    3.3752   28.9357 C   0  0  0  0  0  0  0  0  0  0  0  0
  -25.0228    3.9169   30.3486 Cl  0  0  0  0  0  0  0  0  0  0  0  0
  -26.7284    4.2032   28.5920 C   0  0  0  0  0  0  0  0  0  0  0  0
  -27.5148    4.4019   29.3180 O   0  0  0  0  0  0  0  0  0  0  0  0
  -26.7824    4.6090   27.3344 O   0  0  0  0  0  0  0  0  0  0  0  0
  -22.1408    0.6203   28.9553 C   0  0  0  0  0  0  0  0  0  0  0  0
  -28.5471   -3.4996   31.0517 C   0  0  0  0  0  0  0  0  0  0  0  0
  -29.2707   -4.6413   30.3006 C   0  0  0  0  0  0  0  0  0  0  0  0
  -29.5641   -4.5191   29.1965 O   0  0  0  0  0  0  0  0  0  0  0  0
  -30.9010   -4.2853   29.0028 C   0  0  0  0  0  0  0  0  0  0  0  0
  -31.3717   -5.1999   27.9922 C   0  0  0  0  0  0  0  0  0  0  0  0
  -32.7800   -5.4857   28.1922 C   0  0  0  0  0  0  0  0  0  0  0  0
  -33.5030   -4.5173   28.0934 C   0  0  0  0  0  0  0  0  0  0  0  0
  -33.1798   -3.3664   29.0195 C   0  0  0  0  0  0  0  0  0  0  0  0
  -31.7822   -3.3564   29.4176 C   0  0  0  0  0  0  0  0  0  0  0  0
  -34.0672   -2.2906   29.3518 C   0  0  0  0  0  0  0  0  0  0  0  0
  -33.8284   -1.5434   30.2132 O   0  0  0  0  0  0  0  0  0  0  0  0
  1  2  2  3
  2  3  1  0
  3  4  1  0
  4  5  1  0
  5  6  1  0
  2  7  1  0
  6  7  1  0
  1  8  1  0
  8  9  1  0
  8 10  2  0
  5 11  1  0
 11 12  2  0
 11 13  1  0
  4 14  1  0
 14 15  1  0
 14 16  1  0
 16 17  2  0
 16 18  1  0
 13 19  1  0
  9 20  1  0
 20 21  1  0
 21 22  1  0
 22 23  1  0
 23 24  1  0
 24 25  1  0
 25 26  1  0
 26 27  1  0
 23 28  1  0
 27 28  1  0
 27 29  1  0
 29 30  2  0
M  END

$$$$
