No_2968-gen_results/8p0m/2024-11-27-11-27-31/
     RDKit          3D

 32 36  0  0  0  0  0  0  0  0999 V2000
  -28.0162   -0.8135   28.8779 C   0  0  0  0  0  0  0  0  0  0  0  0
  -27.0636   -0.1189   28.6079 C   0  0  0  0  0  0  0  0  0  0  0  0
  -25.7647   -0.3897   29.0360 C   0  0  0  0  0  0  0  0  0  0  0  0
  -25.5296   -1.5302   29.9014 C   0  0  0  0  0  0  0  0  0  0  0  0
  -26.6577   -2.2915   30.2035 C   0  0  0  0  0  0  0  0  0  0  0  0
  -27.8548   -1.9555   29.7630 C   0  0  0  0  0  0  0  0  0  0  0  0
  -24.5349    0.4128   28.7431 C   0  0  0  0  0  0  0  0  0  0  0  0
  -24.4835    1.2431   27.7398 C   0  0  0  0  0  0  0  0  0  0  0  0
  -25.0977    1.6893   26.9916 C   0  0  0  0  0  0  0  0  0  0  0  0
  -24.7336    2.5972   25.9226 C   0  0  0  0  0  0  0  0  0  0  0  0
  -23.3807    2.8917   25.8163 C   0  0  0  0  0  0  0  0  0  0  0  0
  -22.9354    1.7161   27.6160 C   0  0  0  0  0  0  0  0  0  0  0  0
  -21.9683    1.2943   28.5537 N   0  0  0  0  0  0  0  0  0  0  0  0
  -22.5591    2.5466   26.6211 C   0  0  0  0  0  0  0  0  0  0  0  0
  -23.3755    0.0524   29.6631 C   0  0  0  0  0  0  0  0  0  0  0  0
  -22.1640    0.5808   29.4712 N   0  0  0  0  0  0  0  0  0  0  0  0
  -29.0374   -2.7858   30.1200 C   0  0  0  0  0  0  0  0  0  0  0  0
  -28.9309   -4.0131   30.2824 O   0  0  0  0  0  0  0  0  0  0  0  0
  -30.0692   -2.2312   30.6398 O   0  0  0  0  0  0  0  0  0  0  0  0
  -31.2412   -2.9350   30.8618 C   0  0  0  0  0  0  0  0  0  0  0  0
  -32.4586   -2.2455   30.6437 C   0  0  0  0  0  0  0  0  0  0  0  0
  -33.4985   -2.8226   30.6021 C   0  0  0  0  0  0  0  0  0  0  0  0
  -32.3613   -0.7946   30.4211 C   0  0  0  0  0  0  0  0  0  0  0  0
  -33.5092   -0.0577   30.1187 C   0  0  0  0  0  0  0  0  0  0  0  0
  -34.7819   -2.0798   30.3003 C   0  0  0  0  0  0  0  0  0  0  0  0
  -34.7084   -0.7385   30.1205 C   0  0  0  0  0  0  0  0  0  0  0  0
  -35.9653    0.0169   29.8479 C   0  0  0  0  0  0  0  0  0  0  0  0
  -36.8702   -0.3607   29.2888 C   0  0  0  0  0  0  0  0  0  0  0  0
  -38.1047    0.4060   29.0515 C   0  0  0  0  0  0  0  0  0  0  0  0
  -38.1141    1.7422   29.5143 C   0  0  0  0  0  0  0  0  0  0  0  0
  -37.0030    2.2085   30.1601 C   0  0  0  0  0  0  0  0  0  0  0  0
  -35.8749    1.4239   30.3789 C   0  0  0  0  0  0  0  0  0  0  0  0
  3  7  1  0
  6 17  1  0
 17 18  2  0
 17 19  1  0
 19 20  1  0
 20 21  1  0
 26 27  1  0
  1  2  2  0
  2  3  1  0
  3  4  2  0
  4  5  1  0
  5  6  2  0
  6  1  1  0
  8  9  2  0
  9 10  1  0
 10 11  2  0
 11 14  1  0
 14 12  2  0
 27 28  2  0
 28 29  1  0
 29 30  2  0
 30 31  1  0
 31 32  2  0
 32 27  1  0
 21 22  2  0
 22 25  1  0
 25 26  2  0
 26 24  1  0
 24 23  2  0
 23 21  1  0
  7  8  1  0
  8 12  1  0
 12 13  1  0
 13 16  2  0
 16 15  1  0
 15  7  2  0
M  END

$$$$
