No_2438-gen_results/8p0m/2024-11-27-11-27-31/
     RDKit          3D

 23 26  0  0  0  0  0  0  0  0999 V2000
  -28.0162   -0.8135   28.8779 C   0  0  0  0  0  0  0  0  0  0  0  0
  -27.0636   -0.1189   28.6079 C   0  0  0  0  0  0  0  0  0  0  0  0
  -25.7647   -0.3897   29.0360 C   0  0  0  0  0  0  0  0  0  0  0  0
  -25.5296   -1.5302   29.9014 C   0  0  0  0  0  0  0  0  0  0  0  0
  -26.6888   -2.2893   30.1810 C   0  0  0  0  0  0  0  0  0  0  0  0
  -27.8727   -1.9508   29.7373 C   0  0  0  0  0  0  0  0  0  0  0  0
  -24.5491    0.4100   28.7341 C   0  0  0  0  0  0  0  0  0  0  0  0
  -24.0931    1.3779   29.5761 C   0  0  0  0  0  0  0  0  0  0  0  0
  -24.8271    1.7177   30.7369 C   0  0  0  0  0  0  0  0  0  0  0  0
  -25.6382    1.0055   31.3745 C   0  0  0  0  0  0  0  0  0  0  0  0
  -26.2097    1.5849   32.6539 C   0  0  0  0  0  0  0  0  0  0  0  0
  -25.9517    2.8801   33.0031 C   0  0  0  0  0  0  0  0  0  0  0  0
  -25.1048    3.6836   32.2375 C   0  0  0  0  0  0  0  0  0  0  0  0
  -24.4956    3.2005   31.1715 C   0  0  0  0  0  0  0  0  0  0  0  0
  -27.4291    1.0871   27.8228 C   0  0  0  0  0  0  0  0  0  0  0  0
  -28.5327    1.4730   27.5051 C   0  0  0  0  0  0  0  0  0  0  0  0
  -28.8202    2.6181   26.7806 C   0  0  0  0  0  0  0  0  0  0  0  0
  -27.7594    3.3781   26.2481 C   0  0  0  0  0  0  0  0  0  0  0  0
  -26.4343    2.9715   26.4874 C   0  0  0  0  0  0  0  0  0  0  0  0
  -26.2315    1.9199   27.2731 C   0  0  0  0  0  0  0  0  0  0  0  0
  -24.2049    0.3173   27.4396 C   0  0  0  0  0  0  0  0  0  0  0  0
  -24.9994    1.3774   26.6760 C   0  0  0  0  0  0  0  0  0  0  0  0
  -24.2254   -1.8665   30.3973 C   0  0  0  0  0  0  0  0  0  0  0  0
  3  7  1  0
  7  8  2  3
  8  9  1  0
  2 15  1  0
  7 21  1  0
 20 22  1  0
 21 22  1  0
  4 23  1  0
 15 16  2  0
 16 17  1  0
 17 18  2  0
 18 19  1  0
 19 20  2  0
 20 15  1  0
  1  2  2  0
  2  3  1  0
  3  4  2  0
  4  5  1  0
  5  6  2  0
  6  1  1  0
  9 10  2  0
 10 11  1  0
 11 12  2  0
 12 13  1  0
 13 14  2  0
 14  9  1  0
M  END

$$$$
