No_2447-gen_results/8p0m/2024-11-27-11-27-31/
     RDKit          3D

 13 14  0  0  0  0  0  0  0  0999 V2000
  -28.0162   -0.8135   28.8779 C   0  0  0  0  0  0  0  0  0  0  0  0
  -28.4690   -0.7850   29.8287 C   0  0  0  0  0  0  0  0  0  0  0  0
  -27.0871    0.2903   28.6377 C   0  0  0  0  0  0  0  0  0  0  0  0
  -26.2516    0.4114   27.4223 C   0  0  0  0  0  0  0  0  0  0  0  0
  -28.3913    0.1041   30.9805 C   0  0  0  0  0  0  0  0  0  0  0  0
  -27.5332    1.1666   30.7866 C   0  0  0  0  0  0  0  0  0  0  0  0
  -26.8281    1.2557   29.6454 C   0  0  0  0  0  0  0  0  0  0  0  0
  -25.1384    0.6748   27.2308 C   0  0  0  0  0  0  0  0  0  0  0  0
  -24.5122    1.0055   25.9533 C   0  0  0  0  0  0  0  0  0  0  0  0
  -25.2546    0.5906   24.8010 C   0  0  0  0  0  0  0  0  0  0  0  0
  -26.8693    0.1286   26.0855 C   0  0  0  0  0  0  0  0  0  0  0  0
  -26.4251    0.2293   24.9552 C   0  0  0  0  0  0  0  0  0  0  0  0
  -29.7310   -2.2738   30.2613 Br  0  0  0  0  0  0  0  0  0  0  0  0
  3  4  1  0
  2 13  1  0
  4  8  2  0
  8  9  1  0
  9 10  2  0
 10 12  1  0
 12 11  2  0
 11  4  1  0
  1  2  2  0
  2  5  1  0
  5  6  2  0
  6  7  1  0
  7  3  2  0
  3  1  1  0
M  END

$$$$
