No_2328-gen_results/8p0m/2024-11-27-11-27-31/
     RDKit          3D

 21 23  0  0  0  0  0  0  0  0999 V2000
  -28.1493   -0.8198   28.9079 Cl  0  0  0  0  0  0  0  0  0  0  0  0
  -26.9116   -0.0797   28.9452 C   0  0  0  0  0  0  0  0  0  0  0  0
  -26.7384    1.0439   29.2534 C   0  0  0  0  0  0  0  0  0  0  0  0
  -25.4392    1.7115   29.2755 C   0  0  0  0  0  0  0  0  0  0  0  0
  -24.2812    0.9888   28.8542 C   0  0  0  0  0  0  0  0  0  0  0  0
  -24.4868   -0.3041   28.4957 C   0  0  0  0  0  0  0  0  0  0  0  0
  -25.6316   -0.7016   28.5755 C   0  0  0  0  0  0  0  0  0  0  0  0
  -22.9604    1.6613   28.8028 C   0  0  0  0  0  0  0  0  0  0  0  0
  -22.7395    2.5722   28.2432 N   0  0  0  0  0  0  0  0  0  0  0  0
  -21.8890    0.7746   29.1803 N   0  0  0  0  0  0  0  0  0  0  0  0
  -22.0466   -0.4769   29.6957 C   0  0  0  0  0  0  0  0  0  0  0  0
  -23.1110   -1.2938   29.3500 C   0  0  0  0  0  0  0  0  0  0  0  0
  -27.8779    2.0726   29.4281 C   0  0  0  0  0  0  0  0  0  0  0  0
  -27.7208    3.0332   29.9550 C   0  0  0  0  0  0  0  0  0  0  0  0
  -28.8195    4.0124   30.3118 C   0  0  0  0  0  0  0  0  0  0  0  0
  -30.0635    3.5622   29.8465 C   0  0  0  0  0  0  0  0  0  0  0  0
  -30.2203    2.3991   29.2066 C   0  0  0  0  0  0  0  0  0  0  0  0
  -29.1393    1.5917   29.0122 C   0  0  0  0  0  0  0  0  0  0  0  0
  -31.5371    1.9480   28.7597 C   0  0  0  0  0  0  0  0  0  0  0  0
  -31.9621    1.9308   27.8287 C   0  0  0  0  0  0  0  0  0  0  0  0
  -33.2819    1.3792   27.3741 C   0  0  0  0  0  0  0  0  0  0  0  0
  1  2  1  0
  5  8  1  0
  8  9  2  0
  8 10  1  0
 10 11  1  0
  6 12  1  0
 11 12  1  0
  3 13  1  0
 17 19  1  0
 19 20  2  3
 20 21  1  0
  2  3  2  0
  3  4  1  0
  4  5  2  0
  5  6  1  0
  6  7  2  0
  7  2  1  0
 13 14  2  0
 14 15  1  0
 15 16  2  0
 16 17  1  0
 17 18  2  0
 18 13  1  0
M  END

$$$$
