No_2808-gen_results/8p0m/2024-11-27-11-27-31/
     RDKit          3D

 13 14  0  0  0  0  0  0  0  0999 V2000
  -28.1229   -1.3353   28.4874 O   0  0  0  0  0  0  0  0  0  0  0  0
  -27.0637   -0.8242   28.8687 C   0  0  0  0  0  0  0  0  0  0  0  0
  -25.9464   -1.0396   28.8492 C   0  0  0  0  0  0  0  0  0  0  0  0
  -24.7602   -0.1562   29.1644 C   0  0  0  0  0  0  0  0  0  0  0  0
  -25.0917    1.0791   29.6491 C   0  0  0  0  0  0  0  0  0  0  0  0
  -26.4090    1.4383   29.7067 C   0  0  0  0  0  0  0  0  0  0  0  0
  -27.3694    0.6586   29.4148 C   0  0  0  0  0  0  0  0  0  0  0  0
  -23.3620   -0.5666   29.1027 C   0  0  0  0  0  0  0  0  0  0  0  0
  -22.4450    0.2927   28.4681 C   0  0  0  0  0  0  0  0  0  0  0  0
  -21.0546    0.0066   28.5227 C   0  0  0  0  0  0  0  0  0  0  0  0
  -20.7116   -1.2726   28.9980 C   0  0  0  0  0  0  0  0  0  0  0  0
  -22.9040   -1.7533   29.6050 C   0  0  0  0  0  0  0  0  0  0  0  0
  -21.5785   -2.0528   29.5228 N   0  0  0  0  0  0  0  0  0  0  0  0
  1  2  2  0
  2  3  1  0
  3  4  1  0
  4  5  1  0
  5  6  1  0
  2  7  1  0
  4  8  1  0
  6  7  1  0
  8  9  2  0
  9 10  1  0
 10 11  2  0
 11 13  1  0
 13 12  2  0
 12  8  1  0
M  END

$$$$
