No_2301-gen_results/8p0m/2024-11-27-11-27-31/
     RDKit          3D

 17 19  0  0  0  0  0  0  0  0999 V2000
  -28.1229   -1.3353   28.4874 O   0  0  0  0  0  0  0  0  0  0  0  0
  -27.0637   -0.8242   28.8687 C   0  0  0  0  0  0  0  0  0  0  0  0
  -25.9773   -1.1378   28.8137 N   0  0  0  0  0  0  0  0  0  0  0  0
  -24.7669   -0.3464   29.1634 C   0  0  0  0  0  0  0  0  0  0  0  0
  -27.1684    0.7551   29.2892 C   0  0  0  0  0  0  0  0  0  0  0  0
  -24.9442    0.9296   29.5403 C   0  0  0  0  0  0  0  0  0  0  0  0
  -26.1536    1.4725   29.5855 C   0  0  0  0  0  0  0  0  0  0  0  0
  -23.4199   -0.9718   29.1166 C   0  0  0  0  0  0  0  0  0  0  0  0
  -22.2729   -0.1550   28.9832 C   0  0  0  0  0  0  0  0  0  0  0  0
  -22.4502    1.2379   29.1389 C   0  0  0  0  0  0  0  0  0  0  0  0
  -23.6613    1.7467   29.5162 C   0  0  0  0  0  0  0  0  0  0  0  0
  -28.6084    1.1612   29.3689 C   0  0  0  0  0  0  0  0  0  0  0  0
  -28.7773    2.5071   28.9921 C   0  0  0  0  0  0  0  0  0  0  0  0
  -27.8303    3.4330   29.5015 C   0  0  0  0  0  0  0  0  0  0  0  0
  -26.4448    2.9413   29.6805 C   0  0  0  0  0  0  0  0  0  0  0  0
  -25.4330    3.7493   29.9548 O   0  0  0  0  0  0  0  0  0  0  0  0
  -29.0572    2.6873   27.4767 C   0  0  0  0  0  0  0  0  0  0  0  0
  1  2  2  0
  2  3  1  0
  3  4  1  0
  2  5  1  0
  5  7  1  0
  6  7  1  0
  5 12  1  0
 12 13  1  0
  7 15  1  0
 14 15  1  0
 15 16  2  0
 13 17  1  0
 13 14  1  0
  4  6  2  0
  6 11  1  0
 11 10  2  0
 10  9  1  0
  9  8  2  0
  8  4  1  0
M  END

$$$$
