No_2785-gen_results/8p0m/2024-11-27-11-27-31/
     RDKit          3D

 11 11  0  0  0  0  0  0  0  0999 V2000
  -28.1229   -1.3353   28.4874 O   0  0  0  0  0  0  0  0  0  0  0  0
  -27.0637   -0.8242   28.8687 C   0  0  0  0  0  0  0  0  0  0  0  0
  -26.4446   -0.0097   28.8266 N   0  0  0  0  0  0  0  0  0  0  0  0
  -26.3514   -1.9045   29.8953 C   0  0  0  0  0  0  0  0  0  0  0  0
  -26.9151    1.1844   28.0474 C   0  0  0  0  0  0  0  0  0  0  0  0
  -26.0226    1.7947   27.2860 C   0  0  0  0  0  0  0  0  0  0  0  0
  -24.6767    1.7055   27.5649 C   0  0  0  0  0  0  0  0  0  0  0  0
  -24.2248    0.7140   28.4853 C   0  0  0  0  0  0  0  0  0  0  0  0
  -25.0573   -0.0505   28.9571 C   0  0  0  0  0  0  0  0  0  0  0  0
  -25.0864   -1.9298   30.1413 C   0  0  0  0  0  0  0  0  0  0  0  0
  -24.3659   -1.0713   29.6997 C   0  0  0  0  0  0  0  0  0  0  0  0
  1  2  2  0
  2  3  1  0
  2  4  1  0
  3  5  1  0
  5  6  1  0
  7  8  1  0
  3  9  1  0
  4 10  2  3
 10 11  1  0
  6  7  1  0
  8  9  1  0
M  END

$$$$
