No_2129-gen_results/8p0m/2024-11-27-11-27-31/
     RDKit          3D

 35 38  0  0  0  0  0  0  0  0999 V2000
  -28.0162   -0.8135   28.8779 C   0  0  0  0  0  0  0  0  0  0  0  0
  -28.4690   -0.7850   29.8287 C   0  0  0  0  0  0  0  0  0  0  0  0
  -27.1356    0.2359   28.5352 C   0  0  0  0  0  0  0  0  0  0  0  0
  -26.3351    0.2900   27.2835 C   0  0  0  0  0  0  0  0  0  0  0  0
  -28.3692    0.1957   30.9236 C   0  0  0  0  0  0  0  0  0  0  0  0
  -27.5158    1.2655   30.6540 C   0  0  0  0  0  0  0  0  0  0  0  0
  -26.8411    1.2942   29.4761 C   0  0  0  0  0  0  0  0  0  0  0  0
  -25.9756   -0.2930   26.4390 Cl  0  0  0  0  0  0  0  0  0  0  0  0
  -25.8812    1.8382   27.0747 C   0  0  0  0  0  0  0  0  0  0  0  0
  -25.6775    2.5929   27.8743 C   0  0  0  0  0  0  0  0  0  0  0  0
  -26.1629    2.5068   29.1460 C   0  0  0  0  0  0  0  0  0  0  0  0
  -25.9818    3.6237   30.1709 C   0  0  0  0  0  0  0  0  0  0  0  0
  -26.9678    3.9343   30.7593 O   0  0  0  0  0  0  0  0  0  0  0  0
  -27.1751    5.2779   30.7845 C   0  0  0  0  0  0  0  0  0  0  0  0
  -26.2420    5.9325   30.4703 C   0  0  0  0  0  0  0  0  0  0  0  0
  -25.2605    4.9671   29.8461 C   0  0  0  0  0  0  0  0  0  0  0  0
  -26.3694    7.0647   29.5372 O   0  0  0  0  0  0  0  0  0  0  0  0
  -25.2362    5.1394   28.4092 O   0  0  0  0  0  0  0  0  0  0  0  0
  -27.7756    5.6847   32.1890 C   0  0  0  0  0  0  0  0  0  0  0  0
  -27.2253    5.3270   33.1166 O   0  0  0  0  0  0  0  0  0  0  0  0
  -28.0718    7.1445   32.2269 C   0  0  0  0  0  0  0  0  0  0  0  0
  -29.0742    7.6737   31.4921 C   0  0  0  0  0  0  0  0  0  0  0  0
  -28.9019    8.5859   30.8060 O   0  0  0  0  0  0  0  0  0  0  0  0
  -30.0929    6.7994   31.2556 O   0  0  0  0  0  0  0  0  0  0  0  0
  -24.9823    6.4598   27.9850 C   0  0  0  0  0  0  0  0  0  0  0  0
  -25.7559    7.3552   28.4693 C   0  0  0  0  0  0  0  0  0  0  0  0
  -27.7238    5.2040   34.3958 C   0  0  0  0  0  0  0  0  0  0  0  0
  -26.6923    8.0386   27.4735 C   0  0  0  0  0  0  0  0  0  0  0  0
  -27.0303    4.1469   35.0750 C   0  0  0  0  0  0  0  0  0  0  0  0
  -27.7693    3.1142   35.1626 C   0  0  0  0  0  0  0  0  0  0  0  0
  -27.1889    2.2423   34.4071 F   0  0  0  0  0  0  0  0  0  0  0  0
  -27.6395    2.5096   36.4281 F   0  0  0  0  0  0  0  0  0  0  0  0
  -28.9783    3.1217   34.7943 F   0  0  0  0  0  0  0  0  0  0  0  0
  -26.7332    4.8027   36.4135 O   0  0  0  0  0  0  0  0  0  0  0  0
  -27.6051    7.3074   26.8749 C   0  0  0  0  0  0  0  0  0  0  0  0
  4  8  1  0
 11 12  1  0
 12 13  1  0
 13 14  1  0
 14 15  2  0
 12 16  1  0
 15 16  1  0
 15 17  1  0
 16 18  1  0
 14 19  1  0
 19 20  1  0
 19 21  1  0
 21 22  1  0
 22 23  2  0
 22 24  1  0
 18 25  1  0
 17 26  1  0
 25 26  2  0
 20 27  1  0
 26 28  1  0
 27 29  1  0
 29 30  1  0
 30 31  1  0
 30 32  1  0
 30 33  1  0
 29 34  1  0
 28 35  1  0
  3  4  2  0
  4  9  1  0
  9 10  2  0
 10 11  1  0
 11  7  2  0
  1  2  2  0
  2  5  1  0
  5  6  2  0
  6  7  1  0
  7  3  1  0
  3  1  1  0
M  END

$$$$
