No_2737-gen_results/8p0m/2024-11-27-11-27-31/
     RDKit          3D

  6  5  0  0  0  0  0  0  0  0999 V2000
  -27.9505   -0.5786   29.0402 P   0  0  0  0  0  0  0  0  0  0  0  0
  -27.2401    0.0613   28.4283 O   0  0  0  0  0  0  0  0  0  0  0  0
  -27.2819   -1.9675   29.2787 O   0  0  0  0  0  0  0  0  0  0  0  0
  -29.3800   -0.5664   29.2000 O   0  0  0  0  0  0  0  0  0  0  0  0
  -27.4366   -0.1780   30.6561 O   0  0  0  0  0  0  0  0  0  0  0  0
  -27.4532   -2.7227   30.3269 C   0  0  0  0  0  0  0  0  0  0  0  0
  1  2  2  0
  1  3  1  0
  1  4  1  0
  1  5  1  0
  3  6  1  0
M  END

$$$$
