No_2556-gen_results/8p0m/2024-11-27-11-27-31/
     RDKit          3D

 11 11  0  0  0  0  0  0  0  0999 V2000
  -28.0162   -0.8135   28.8779 C   0  0  0  0  0  0  0  0  0  0  0  0
  -27.0636   -0.1189   28.6079 C   0  0  0  0  0  0  0  0  0  0  0  0
  -25.8176   -0.3427   29.0488 N   0  0  0  0  0  0  0  0  0  0  0  0
  -24.6757    0.3814   28.7496 C   0  0  0  0  0  0  0  0  0  0  0  0
  -23.3317    0.0231   29.2052 C   0  0  0  0  0  0  0  0  0  0  0  0
  -27.1812    0.9682   27.6388 C   0  0  0  0  0  0  0  0  0  0  0  0
  -26.0788    1.7596   27.1955 C   0  0  0  0  0  0  0  0  0  0  0  0
  -24.7013    1.4433   27.7655 C   0  0  0  0  0  0  0  0  0  0  0  0
  -23.1408   -0.9126   30.1707 C   0  0  0  0  0  0  0  0  0  0  0  0
  -22.2129    0.6671   28.6101 C   0  0  0  0  0  0  0  0  0  0  0  0
  -22.3277    1.5676   27.7549 O   0  0  0  0  0  0  0  0  0  0  0  0
  1  2  1  0
  4  5  1  0
  5  9  1  0
  5 10  1  0
 10 11  2  0
  2  3  2  0
  3  4  1  0
  4  8  2  0
  8  7  1  0
  7  6  2  0
  6  2  1  0
M  END

$$$$
