No_2730-gen_results/8p0m/2024-11-27-11-27-31/
     RDKit          3D

 10 10  0  0  0  0  0  0  0  0999 V2000
  -28.0162   -0.8135   28.8779 C   0  0  0  0  0  0  0  0  0  0  0  0
  -28.4690   -0.7850   29.8287 C   0  0  0  0  0  0  0  0  0  0  0  0
  -26.5455   -0.8762   28.8500 C   0  0  0  0  0  0  0  0  0  0  0  0
  -25.8041   -1.0324   30.0571 C   0  0  0  0  0  0  0  0  0  0  0  0
  -30.0055   -0.7457   29.8978 C   0  0  0  0  0  0  0  0  0  0  0  0
  -26.5747   -1.0565   31.2005 C   0  0  0  0  0  0  0  0  0  0  0  0
  -27.9251   -0.9738   31.1683 C   0  0  0  0  0  0  0  0  0  0  0  0
  -30.6220   -0.0227   29.0629 N   0  0  0  0  0  0  0  0  0  0  0  0
  -31.7982   -0.2043   28.5733 C   0  0  0  0  0  0  0  0  0  0  0  0
  -32.2986    0.5793   27.4978 C   0  0  0  0  0  0  0  0  0  0  0  0
  2  5  1  0
  5  8  1  0
  8  9  1  0
  9 10  2  0
  1  2  2  0
  2  7  1  0
  7  6  2  0
  6  4  1  0
  4  3  2  0
  3  1  1  0
M  END

$$$$
