No_2522-gen_results/8p0m/2024-11-27-11-27-31/
     RDKit          3D

  7  7  0  0  0  0  0  0  0  0999 V2000
  -28.1229   -1.3353   28.4874 O   0  0  0  0  0  0  0  0  0  0  0  0
  -27.0637   -0.8242   28.8687 C   0  0  0  0  0  0  0  0  0  0  0  0
  -26.9592    0.0926   29.7582 C   0  0  0  0  0  0  0  0  0  0  0  0
  -25.8184   -1.0917   28.1701 N   0  0  0  0  0  0  0  0  0  0  0  0
  -25.7390    0.7179   30.2339 C   0  0  0  0  0  0  0  0  0  0  0  0
  -24.5979   -0.5764   28.5263 C   0  0  0  0  0  0  0  0  0  0  0  0
  -24.5141    0.3428   29.5346 C   0  0  0  0  0  0  0  0  0  0  0  0
  1  2  2  0
  2  3  1  0
  2  4  1  0
  4  6  1  0
  5  7  1  0
  3  5  1  0
  7  6  1  0
M  END

$$$$
