No_2076-gen_results/8p0m/2024-11-27-11-27-31/
     RDKit          3D

  9  9  0  0  0  0  0  0  0  0999 V2000
  -28.1493   -0.8198   28.9079 Cl  0  0  0  0  0  0  0  0  0  0  0  0
  -28.5324   -0.0471   29.7727 C   0  0  0  0  0  0  0  0  0  0  0  0
  -27.6024    0.7852   30.3185 C   0  0  0  0  0  0  0  0  0  0  0  0
  -26.6672    1.0570   30.0793 C   0  0  0  0  0  0  0  0  0  0  0  0
  -25.6171    2.0020   30.6525 C   0  0  0  0  0  0  0  0  0  0  0  0
  -24.2720    2.2214   30.1905 C   0  0  0  0  0  0  0  0  0  0  0  0
  -23.9368    1.4603   29.0261 C   0  0  0  0  0  0  0  0  0  0  0  0
  -24.8153    0.5708   28.4688 C   0  0  0  0  0  0  0  0  0  0  0  0
  -26.0249    0.4034   28.9983 C   0  0  0  0  0  0  0  0  0  0  0  0
  1  2  1  0
  2  3  2  3
  3  4  1  0
  4  5  2  0
  5  6  1  0
  6  7  2  0
  7  8  1  0
  8  9  2  0
  9  4  1  0
M  END

$$$$
