No_2136-gen_results/8p0m/2024-11-27-11-27-31/
     RDKit          3D

 23 25  0  0  0  0  0  0  0  0999 V2000
  -28.0162   -0.8135   28.8779 C   0  0  0  0  0  0  0  0  0  0  0  0
  -28.4690   -0.7850   29.8287 C   0  0  0  0  0  0  0  0  0  0  0  0
  -26.5455   -0.8762   28.8500 C   0  0  0  0  0  0  0  0  0  0  0  0
  -25.8041   -1.0324   30.0571 C   0  0  0  0  0  0  0  0  0  0  0  0
  -26.5373   -1.0386   31.2171 C   0  0  0  0  0  0  0  0  0  0  0  0
  -27.8843   -0.9532   31.1862 C   0  0  0  0  0  0  0  0  0  0  0  0
  -24.3555   -1.1121   30.0346 C   0  0  0  0  0  0  0  0  0  0  0  0
  -23.6610    0.1027   29.8448 C   0  0  0  0  0  0  0  0  0  0  0  0
  -23.9525    1.2330   30.4519 C   0  0  0  0  0  0  0  0  0  0  0  0
  -23.4330    2.4894   30.0201 C   0  0  0  0  0  0  0  0  0  0  0  0
  -22.7239    2.4717   28.8101 C   0  0  0  0  0  0  0  0  0  0  0  0
  -22.8032    0.2708   28.6543 C   0  0  0  0  0  0  0  0  0  0  0  0
  -22.3153    1.3980   28.2568 C   0  0  0  0  0  0  0  0  0  0  0  0
  -25.7951   -0.7761   27.6547 N   0  0  0  0  0  0  0  0  0  0  0  0
  -26.1223    0.0456   26.6041 C   0  0  0  0  0  0  0  0  0  0  0  0
  -25.3813   -0.0080   25.4314 C   0  0  0  0  0  0  0  0  0  0  0  0
  -27.0246    1.1362   26.7675 C   0  0  0  0  0  0  0  0  0  0  0  0
  -27.2094    2.0535   25.7632 C   0  0  0  0  0  0  0  0  0  0  0  0
  -25.6013    0.8539   24.3851 C   0  0  0  0  0  0  0  0  0  0  0  0
  -26.5289    1.8871   24.5747 C   0  0  0  0  0  0  0  0  0  0  0  0
  -24.9233   -1.8836   27.3326 C   0  0  0  0  0  0  0  0  0  0  0  0
  -30.2568   -0.6062   29.7839 Cl  0  0  0  0  0  0  0  0  0  0  0  0
  -23.7106   -2.2498   30.5243 C   0  0  0  0  0  0  0  0  0  0  0  0
  4  7  1  0
  7  8  1  0
  3 14  1  0
 14 15  1  0
 14 21  1  0
  2 22  1  0
  7 23  1  0
  1  2  2  0
  2  6  1  0
  6  5  2  0
  5  4  1  0
  4  3  2  0
  3  1  1  0
 15 16  2  0
 16 19  1  0
 19 20  2  0
 20 18  1  0
 18 17  2  0
 17 15  1  0
  8  9  2  0
  9 10  1  0
 10 11  2  0
 11 13  1  0
 13 12  2  0
 12  8  1  0
M  END

$$$$
