No_2146-gen_results/8p0m/2024-11-27-11-27-31/
     RDKit          3D

 28 32  0  0  0  0  0  0  0  0999 V2000
  -28.0162   -0.8135   28.8779 C   0  0  0  0  0  0  0  0  0  0  0  0
  -28.4690   -0.7850   29.8287 C   0  0  0  0  0  0  0  0  0  0  0  0
  -28.1960    0.3478   28.0550 C   0  0  0  0  0  0  0  0  0  0  0  0
  -27.4421    0.5100   26.7946 C   0  0  0  0  0  0  0  0  0  0  0  0
  -27.8427    1.3330   25.8056 C   0  0  0  0  0  0  0  0  0  0  0  0
  -28.2883   -1.9420   30.9175 C   0  0  0  0  0  0  0  0  0  0  0  0
  -27.4408   -2.9625   30.4513 C   0  0  0  0  0  0  0  0  0  0  0  0
  -26.6879   -2.8142   29.3384 C   0  0  0  0  0  0  0  0  0  0  0  0
  -26.8192   -1.6460   28.6111 C   0  0  0  0  0  0  0  0  0  0  0  0
  -28.9825    2.1618   25.9234 C   0  0  0  0  0  0  0  0  0  0  0  0
  -29.3806    1.1410   27.9991 C   0  0  0  0  0  0  0  0  0  0  0  0
  -29.7130    2.0652   27.0453 C   0  0  0  0  0  0  0  0  0  0  0  0
  -25.6903   -3.7155   29.0892 N   0  0  0  0  0  0  0  0  0  0  0  0
  -24.3239   -3.3981   28.8833 C   0  0  0  0  0  0  0  0  0  0  0  0
  -25.8815   -5.1043   29.2595 C   0  0  0  0  0  0  0  0  0  0  0  0
  -23.5110   -4.4244   28.6596 N   0  0  0  0  0  0  0  0  0  0  0  0
  -24.5190   -5.4967   28.8318 C   0  0  0  0  0  0  0  0  0  0  0  0
  -23.7871   -2.1767   28.7334 N   0  0  0  0  0  0  0  0  0  0  0  0
  -22.7368   -1.6721   29.4594 C   0  0  0  0  0  0  0  0  0  0  0  0
  -22.3732   -0.2573   29.1235 C   0  0  0  0  0  0  0  0  0  0  0  0
  -23.2179    0.4589   28.2411 C   0  0  0  0  0  0  0  0  0  0  0  0
  -24.2568   -0.1851   27.5481 C   0  0  0  0  0  0  0  0  0  0  0  0
  -24.5255   -1.4027   27.8720 C   0  0  0  0  0  0  0  0  0  0  0  0
  -25.9836   -1.5580   27.9695 N   0  0  0  0  0  0  0  0  0  0  0  0
  -22.6649    1.8183   27.8189 C   0  0  0  0  0  0  0  0  0  0  0  0
  -23.4389    2.6608   27.2686 O   0  0  0  0  0  0  0  0  0  0  0  0
  -21.4122    2.0983   27.9853 O   0  0  0  0  0  0  0  0  0  0  0  0
  -28.9929   -1.9616   32.2841 Cl  0  0  0  0  0  0  0  0  0  0  0  0
  1  3  1  0
  8 13  1  0
 13 14  1  0
 13 15  1  0
 14 16  2  0
 15 17  1  0
 16 17  1  0
 14 18  1  0
 18 19  1  0
 20 21  1  0
 18 23  1  0
 22 23  1  0
  9 24  1  0
 23 24  1  0
 21 25  1  0
 25 26  2  0
 25 27  1  0
  6 28  1  0
 19 20  1  0
 21 22  1  0
  3  4  2  0
  4  5  1  0
  5 10  2  0
 10 12  1  0
 12 11  2  0
 11  3  1  0
  1  2  2  0
  2  6  1  0
  6  7  2  0
  7  8  1  0
  8  9  2  0
  9  1  1  0
M  END

$$$$
