No_2083-gen_results/8p0m/2024-11-27-11-27-31/
     RDKit          3D

 35 39  0  0  0  0  0  0  0  0999 V2000
  -28.0162   -0.8135   28.8779 C   0  0  0  0  0  0  0  0  0  0  0  0
  -27.0636   -0.1190   28.6079 C   0  0  0  0  0  0  0  0  0  0  0  0
  -25.7923   -0.4302   29.0761 C   0  0  0  0  0  0  0  0  0  0  0  0
  -25.5756   -1.5654   29.9363 C   0  0  0  0  0  0  0  0  0  0  0  0
  -26.7354   -2.3004   30.2173 C   0  0  0  0  0  0  0  0  0  0  0  0
  -27.9184   -1.9537   29.7629 C   0  0  0  0  0  0  0  0  0  0  0  0
  -27.1057    1.1023   27.7593 C   0  0  0  0  0  0  0  0  0  0  0  0
  -27.8576    1.5309   27.2156 C   0  0  0  0  0  0  0  0  0  0  0  0
  -27.8433    2.7213   26.2861 C   0  0  0  0  0  0  0  0  0  0  0  0
  -26.6217    3.3253   26.0566 C   0  0  0  0  0  0  0  0  0  0  0  0
  -25.4854    2.7960   26.6725 C   0  0  0  0  0  0  0  0  0  0  0  0
  -25.6222    1.7365   27.5193 C   0  0  0  0  0  0  0  0  0  0  0  0
  -29.0777   -2.7599   30.2148 C   0  0  0  0  0  0  0  0  0  0  0  0
  -30.1904   -2.2909   30.2786 N   0  0  0  0  0  0  0  0  0  0  0  0
  -28.8988   -4.0684   30.2330 O   0  0  0  0  0  0  0  0  0  0  0  0
  -31.3925   -3.0913   30.5899 C   0  0  0  0  0  0  0  0  0  0  0  0
  -24.1914    3.4149   26.4425 C   0  0  0  0  0  0  0  0  0  0  0  0
  -23.1106    2.7293   26.7535 O   0  0  0  0  0  0  0  0  0  0  0  0
  -24.0487    4.6109   25.9496 O   0  0  0  0  0  0  0  0  0  0  0  0
  -32.4346   -2.2815   30.9508 C   0  0  0  0  0  0  0  0  0  0  0  0
  -32.4900   -1.1371   30.4464 C   0  0  0  0  0  0  0  0  0  0  0  0
  -31.4396   -0.2466   30.0711 C   0  0  0  0  0  0  0  0  0  0  0  0
  -30.3159   -0.8639   30.0829 C   0  0  0  0  0  0  0  0  0  0  0  0
  -31.6288    1.1779   29.8358 C   0  0  0  0  0  0  0  0  0  0  0  0
  -32.1645    2.0192   30.7681 C   0  0  0  0  0  0  0  0  0  0  0  0
  -32.2831    3.3993   30.4879 C   0  0  0  0  0  0  0  0  0  0  0  0
  -31.8677    3.8960   29.2586 C   0  0  0  0  0  0  0  0  0  0  0  0
  -31.1939    1.7663   28.6089 C   0  0  0  0  0  0  0  0  0  0  0  0
  -31.3130    3.0761   28.3527 C   0  0  0  0  0  0  0  0  0  0  0  0
  -31.9837    5.3822   28.9797 C   0  0  0  0  0  0  0  0  0  0  0  0
  -31.8505    5.8123   27.8972 C   0  0  0  0  0  0  0  0  0  0  0  0
  -31.2254    4.9381   26.8015 C   0  0  0  0  0  0  0  0  0  0  0  0
  -31.0224    3.6442   27.0559 C   0  0  0  0  0  0  0  0  0  0  0  0
  -33.7059   -3.0720   31.2526 C   0  0  0  0  0  0  0  0  0  0  0  0
  -33.7264   -3.8300   32.1668 N   0  0  0  0  0  0  0  0  0  0  0  0
  2  7  1  0
  6 13  1  0
 13 14  1  0
 13 15  2  0
 14 16  1  0
 11 17  1  0
 17 18  2  0
 17 19  1  0
 16 20  1  0
 21 22  1  0
 14 23  1  0
 22 24  1  0
 20 34  1  0
 34 35  1  0
 20 21  1  0
 22 23  1  0
  1  2  2  0
  2  3  1  0
  3  4  2  0
  4  5  1  0
  5  6  2  0
  6  1  1  0
 29 33  1  0
 33 32  2  0
 32 31  1  0
 31 30  2  0
 30 27  1  0
 24 25  2  0
 25 26  1  0
 26 27  2  0
 27 29  1  0
 29 28  2  0
 28 24  1  0
  7  8  2  0
  8  9  1  0
  9 10  2  0
 10 11  1  0
 11 12  2  0
 12  7  1  0
M  END

$$$$
