No_2611-gen_results/8p0m/2024-11-27-11-27-31/
     RDKit          3D

 15 16  0  0  0  0  0  0  0  0999 V2000
  -28.0162   -0.8135   28.8779 C   0  0  0  0  0  0  0  0  0  0  0  0
  -28.4690   -0.7850   29.8287 C   0  0  0  0  0  0  0  0  0  0  0  0
  -26.5455   -0.8762   28.8500 C   0  0  0  0  0  0  0  0  0  0  0  0
  -25.8041   -1.0324   30.0571 C   0  0  0  0  0  0  0  0  0  0  0  0
  -27.9437   -0.9869   31.2075 C   0  0  0  0  0  0  0  0  0  0  0  0
  -26.5825   -1.0386   31.2231 C   0  0  0  0  0  0  0  0  0  0  0  0
  -30.0606   -0.7371   29.9024 C   0  0  0  0  0  0  0  0  0  0  0  0
  -30.6577    0.4233   30.3732 C   0  0  0  0  0  0  0  0  0  0  0  0
  -30.0086    1.3899   30.6447 C   0  0  0  0  0  0  0  0  0  0  0  0
  -30.7191    2.6895   31.0762 C   0  0  0  0  0  0  0  0  0  0  0  0
  -32.0967    2.6143   31.0860 C   0  0  0  0  0  0  0  0  0  0  0  0
  -32.0940    0.4214   30.3997 C   0  0  0  0  0  0  0  0  0  0  0  0
  -32.7581    1.5140   30.7587 C   0  0  0  0  0  0  0  0  0  0  0  0
  -30.6414   -1.7873   29.5138 O   0  0  0  0  0  0  0  0  0  0  0  0
  -34.4548    1.4687   30.8072 Cl  0  0  0  0  0  0  0  0  0  0  0  0
  2  7  1  0
  7  8  1  0
  7 14  2  0
 13 15  1  0
  1  2  2  0
  2  5  1  0
  5  6  2  0
  6  4  1  0
  4  3  2  0
  3  1  1  0
  8  9  2  0
  9 10  1  0
 10 11  2  0
 11 13  1  0
 13 12  2  0
 12  8  1  0
M  END

$$$$
