No_2101-gen_results/8p0m/2024-11-27-11-27-31/
     RDKit          3D

 32 37  0  0  0  0  0  0  0  0999 V2000
  -28.0162   -0.8135   28.8779 C   0  0  0  0  0  0  0  0  0  0  0  0
  -28.4690   -0.7850   29.8287 C   0  0  0  0  0  0  0  0  0  0  0  0
  -27.0871    0.2903   28.6377 C   0  0  0  0  0  0  0  0  0  0  0  0
  -26.2516    0.4114   27.4223 C   0  0  0  0  0  0  0  0  0  0  0  0
  -28.3913    0.1041   30.9805 C   0  0  0  0  0  0  0  0  0  0  0  0
  -27.5332    1.1666   30.7866 C   0  0  0  0  0  0  0  0  0  0  0  0
  -26.8281    1.2557   29.6454 C   0  0  0  0  0  0  0  0  0  0  0  0
  -25.7329    1.6893   27.1546 C   0  0  0  0  0  0  0  0  0  0  0  0
  -24.7819    1.8121   26.1116 C   0  0  0  0  0  0  0  0  0  0  0  0
  -23.9660    3.0366   26.1043 C   0  0  0  0  0  0  0  0  0  0  0  0
  -24.3365    4.1189   26.9508 C   0  0  0  0  0  0  0  0  0  0  0  0
  -25.3771    3.9503   27.8316 C   0  0  0  0  0  0  0  0  0  0  0  0
  -26.0043    2.7565   28.0084 C   0  0  0  0  0  0  0  0  0  0  0  0
  -26.2518    2.5046   29.2514 C   0  0  0  0  0  0  0  0  0  0  0  0
  -25.1508    2.7995   30.3061 C   0  0  0  0  0  0  0  0  0  0  0  0
  -27.3468    3.6641   29.6943 C   0  0  0  0  0  0  0  0  0  0  0  0
  -27.1561    4.4205   30.7531 C   0  0  0  0  0  0  0  0  0  0  0  0
  -28.4774    3.8180   28.8375 C   0  0  0  0  0  0  0  0  0  0  0  0
  -29.6111    4.3359   29.2994 C   0  0  0  0  0  0  0  0  0  0  0  0
  -30.7656    4.4126   28.5062 C   0  0  0  0  0  0  0  0  0  0  0  0
  -26.0477    4.3673   31.5853 C   0  0  0  0  0  0  0  0  0  0  0  0
  -25.0466    3.5421   31.3651 C   0  0  0  0  0  0  0  0  0  0  0  0
  -30.6696    3.9158   27.1902 C   0  0  0  0  0  0  0  0  0  0  0  0
  -29.5310    3.3422   26.6931 C   0  0  0  0  0  0  0  0  0  0  0  0
  -28.3905    3.2912   27.5520 C   0  0  0  0  0  0  0  0  0  0  0  0
  -23.9566    1.7683   30.0917 C   0  0  0  0  0  0  0  0  0  0  0  0
  -23.5473    1.1247   31.1006 O   0  0  0  0  0  0  0  0  0  0  0  0
  -23.4696    1.5942   28.9497 O   0  0  0  0  0  0  0  0  0  0  0  0
  -29.5231    2.8730   25.3171 C   0  0  0  0  0  0  0  0  0  0  0  0
  -30.4872    2.9018   24.5416 C   0  0  0  0  0  0  0  0  0  0  0  0
  -31.7017    3.6215   25.0099 C   0  0  0  0  0  0  0  0  0  0  0  0
  -31.8000    4.0555   26.2926 C   0  0  0  0  0  0  0  0  0  0  0  0
  3  4  1  0
  7 14  1  0
 13 14  1  0
 14 15  1  0
 14 16  1  0
 16 18  1  0
 17 21  1  0
 15 26  1  0
 26 27  1  0
 26 28  2  0
  4  8  1  0
 15 22  1  0
 22 21  1  0
 17 16  1  0
  1  2  2  0
  2  5  1  0
  5  6  2  0
  6  7  1  0
  7  3  2  0
  3  1  1  0
 18 19  2  0
 19 20  1  0
 20 23  2  0
 24 25  2  0
 25 18  1  0
 23 24  1  0
 24 29  1  0
 29 30  2  0
 30 31  1  0
 31 32  2  0
 32 23  1  0
  8  9  2  0
  9 10  1  0
 10 11  2  0
 11 12  1  0
 12 13  2  0
 13  8  1  0
M  END

$$$$
