No_293-gen_results/8p0m/2024-11-27-11-27-31/
     RDKit          3D

 15 16  0  0  0  0  0  0  0  0999 V2000
  -28.0162   -0.8135   28.8779 C   0  0  0  0  0  0  0  0  0  0  0  0
  -28.4690   -0.7850   29.8287 C   0  0  0  0  0  0  0  0  0  0  0  0
  -26.5042   -0.7777   28.8766 C   0  0  0  0  0  0  0  0  0  0  0  0
  -25.9150   -0.6580   29.9230 C   0  0  0  0  0  0  0  0  0  0  0  0
  -27.9691   -0.7243   31.2047 C   0  0  0  0  0  0  0  0  0  0  0  0
  -26.5847   -0.6393   31.2062 C   0  0  0  0  0  0  0  0  0  0  0  0
  -24.4026   -0.5847   30.0419 C   0  0  0  0  0  0  0  0  0  0  0  0
  -23.7439   -1.3708   30.5510 C   0  0  0  0  0  0  0  0  0  0  0  0
  -23.7680    0.5718   29.3937 C   0  0  0  0  0  0  0  0  0  0  0  0
  -22.3979    0.6096   29.2678 C   0  0  0  0  0  0  0  0  0  0  0  0
  -22.2827   -1.3635   30.6651 C   0  0  0  0  0  0  0  0  0  0  0  0
  -21.6705   -0.3834   29.9519 C   0  0  0  0  0  0  0  0  0  0  0  0
  -30.1071   -0.8419   29.8717 C   0  0  0  0  0  0  0  0  0  0  0  0
  -30.7391   -0.0421   30.5972 O   0  0  0  0  0  0  0  0  0  0  0  0
  -30.6253   -1.3960   28.8871 O   0  0  0  0  0  0  0  0  0  0  0  0
  4  7  1  0
  2 13  1  0
 13 14  2  0
 13 15  1  0
  7  8  2  0
  8 11  1  0
 11 12  2  0
 12 10  1  0
 10  9  2  0
  9  7  1  0
  1  2  2  0
  2  5  1  0
  5  6  2  0
  6  4  1  0
  4  3  2  0
  3  1  1  0
M  END

$$$$
