No_242-gen_results/8p0m/2024-11-27-11-27-31/
     RDKit          3D

 20 22  0  0  0  0  0  0  0  0999 V2000
  -28.0162   -0.8135   28.8779 C   0  0  0  0  0  0  0  0  0  0  0  0
  -27.0636   -0.1189   28.6079 C   0  0  0  0  0  0  0  0  0  0  0  0
  -25.7647   -0.3897   29.0360 C   0  0  0  0  0  0  0  0  0  0  0  0
  -25.5296   -1.5302   29.9014 C   0  0  0  0  0  0  0  0  0  0  0  0
  -26.6577   -2.2915   30.2035 C   0  0  0  0  0  0  0  0  0  0  0  0
  -27.8548   -1.9555   29.7630 C   0  0  0  0  0  0  0  0  0  0  0  0
  -24.5349    0.4128   28.7431 C   0  0  0  0  0  0  0  0  0  0  0  0
  -24.4835    1.2431   27.7398 C   0  0  0  0  0  0  0  0  0  0  0  0
  -23.2788    1.9376   27.4159 C   0  0  0  0  0  0  0  0  0  0  0  0
  -22.0791    1.6509   28.0213 C   0  0  0  0  0  0  0  0  0  0  0  0
  -23.2748    0.1108   29.4386 C   0  0  0  0  0  0  0  0  0  0  0  0
  -22.0811    0.7712   29.0650 C   0  0  0  0  0  0  0  0  0  0  0  0
  -29.0977   -2.6321   30.1936 C   0  0  0  0  0  0  0  0  0  0  0  0
  -29.2906   -2.6639   31.5539 O   0  0  0  0  0  0  0  0  0  0  0  0
  -29.6931   -1.6495   32.1257 C   0  0  0  0  0  0  0  0  0  0  0  0
  -29.1542   -1.3798   33.2475 C   0  0  0  0  0  0  0  0  0  0  0  0
  -29.2805   -0.0443   33.8500 C   0  0  0  0  0  0  0  0  0  0  0  0
  -30.1715    0.7701   33.2822 C   0  0  0  0  0  0  0  0  0  0  0  0
  -30.7406    0.4805   32.0682 C   0  0  0  0  0  0  0  0  0  0  0  0
  -30.4276   -0.7403   31.4638 C   0  0  0  0  0  0  0  0  0  0  0  0
  3  7  1  0
  6 13  1  0
 13 14  1  0
 14 15  1  0
  7  8  2  0
  8  9  1  0
  9 10  2  0
 10 12  1  0
 12 11  2  0
 11  7  1  0
  1  2  2  0
  2  3  1  0
  3  4  2  0
  4  5  1  0
  5  6  2  0
  6  1  1  0
 15 16  2  0
 16 17  1  0
 17 18  2  0
 18 19  1  0
 19 20  2  0
 20 15  1  0
M  END

$$$$
