No_2607-gen_results/8p0m/2024-11-27-11-27-31/
     RDKit          3D

 25 27  0  0  0  0  0  0  0  0999 V2000
  -28.0162   -0.8135   28.8779 C   0  0  0  0  0  0  0  0  0  0  0  0
  -27.0636   -0.1189   28.6079 C   0  0  0  0  0  0  0  0  0  0  0  0
  -25.7923   -0.4302   29.0761 C   0  0  0  0  0  0  0  0  0  0  0  0
  -24.5456    0.3494   28.8225 C   0  0  0  0  0  0  0  0  0  0  0  0
  -24.6586    1.4196   27.8878 C   0  0  0  0  0  0  0  0  0  0  0  0
  -25.9471    1.6811   27.3792 C   0  0  0  0  0  0  0  0  0  0  0  0
  -27.0439    0.9739   27.6871 C   0  0  0  0  0  0  0  0  0  0  0  0
  -28.6567   -0.5529   30.0960 N   0  0  0  0  0  0  0  0  0  0  0  0
  -29.5646   -0.5256   30.5354 C   0  0  0  0  0  0  0  0  0  0  0  0
  -29.8541   -0.3414   31.7790 O   0  0  0  0  0  0  0  0  0  0  0  0
  -30.8463   -0.7494   29.6803 C   0  0  0  0  0  0  0  0  0  0  0  0
  -23.4588    2.1671   27.5872 C   0  0  0  0  0  0  0  0  0  0  0  0
  -22.2708    1.7602   28.0626 N   0  0  0  0  0  0  0  0  0  0  0  0
  -23.5262    3.0613   26.6875 O   0  0  0  0  0  0  0  0  0  0  0  0
  -31.9129   -0.2905   30.1659 C   0  0  0  0  0  0  0  0  0  0  0  0
  -32.6383    0.3674   29.7162 C   0  0  0  0  0  0  0  0  0  0  0  0
  -32.3337    1.0955   28.4765 C   0  0  0  0  0  0  0  0  0  0  0  0
  -31.3797    0.4712   27.6909 C   0  0  0  0  0  0  0  0  0  0  0  0
  -30.4152   -0.2763   28.4272 C   0  0  0  0  0  0  0  0  0  0  0  0
  -31.0389    0.9964   26.3475 C   0  0  0  0  0  0  0  0  0  0  0  0
  -31.9610    0.9307   25.3881 C   0  0  0  0  0  0  0  0  0  0  0  0
  -29.7587    1.4539   26.0085 C   0  0  0  0  0  0  0  0  0  0  0  0
  -29.3500    1.6985   24.7246 C   0  0  0  0  0  0  0  0  0  0  0  0
  -31.6293    1.2180   24.0306 C   0  0  0  0  0  0  0  0  0  0  0  0
  -30.3133    1.6833   23.7192 C   0  0  0  0  0  0  0  0  0  0  0  0
  1  2  1  0
  1  8  1  0
  8  9  1  0
  9 10  2  0
  9 11  1  0
  5 12  1  0
 12 13  1  0
 12 14  2  0
 18 20  1  0
  2  3  2  0
  3  4  1  0
  4  5  2  0
  5  6  1  0
  6  7  2  0
  7  2  1  0
 11 15  2  0
 15 16  1  0
 16 17  2  0
 17 18  1  0
 18 19  2  0
 19 11  1  0
 20 21  2  0
 21 24  1  0
 24 25  2  0
 25 23  1  0
 23 22  2  0
 22 20  1  0
M  END

$$$$
