No_2858-gen_results/8p0m/2024-11-27-11-27-31/
     RDKit          3D

 10 10  0  0  0  0  0  0  0  0999 V2000
  -28.1229   -1.3353   28.4874 O   0  0  0  0  0  0  0  0  0  0  0  0
  -27.4806   -0.4044   28.7094 C   0  0  0  0  0  0  0  0  0  0  0  0
  -26.3804   -0.0867   27.9394 C   0  0  0  0  0  0  0  0  0  0  0  0
  -27.6664    0.4468   29.8988 N   0  0  0  0  0  0  0  0  0  0  0  0
  -26.4086    0.8567   26.8802 C   0  0  0  0  0  0  0  0  0  0  0  0
  -25.0376   -0.2564   28.4586 C   0  0  0  0  0  0  0  0  0  0  0  0
  -25.2931    1.1030   26.0563 C   0  0  0  0  0  0  0  0  0  0  0  0
  -23.8706    0.1026   27.7363 C   0  0  0  0  0  0  0  0  0  0  0  0
  -24.0173    0.8680   26.5486 C   0  0  0  0  0  0  0  0  0  0  0  0
  -28.7588    0.0992   30.7716 C   0  0  0  0  0  0  0  0  0  0  0  0
  1  2  2  0
  2  3  1  0
  2  4  1  0
  4 10  1  0
  3  5  2  0
  5  7  1  0
  7  9  2  0
  9  8  1  0
  8  6  2  0
  6  3  1  0
M  END

$$$$
