No_2349-gen_results/8p0m/2024-11-27-11-27-31/
     RDKit          3D

 11 12  0  0  0  0  0  0  0  0999 V2000
  -28.1229   -1.3353   28.4874 O   0  0  0  0  0  0  0  0  0  0  0  0
  -27.4806   -0.4044   28.7094 C   0  0  0  0  0  0  0  0  0  0  0  0
  -27.2412    0.3910   29.5098 N   0  0  0  0  0  0  0  0  0  0  0  0
  -26.2388   -0.3380   27.6778 C   0  0  0  0  0  0  0  0  0  0  0  0
  -25.3093    0.6912   27.7522 C   0  0  0  0  0  0  0  0  0  0  0  0
  -24.1668    0.7786   26.9189 C   0  0  0  0  0  0  0  0  0  0  0  0
  -26.4083    1.4493   29.7870 C   0  0  0  0  0  0  0  0  0  0  0  0
  -25.3512    1.6201   28.9082 C   0  0  0  0  0  0  0  0  0  0  0  0
  -23.3904    1.5474   26.8842 C   0  0  0  0  0  0  0  0  0  0  0  0
  -23.3548    2.5817   28.0533 C   0  0  0  0  0  0  0  0  0  0  0  0
  -24.3066    2.5420   28.9417 C   0  0  0  0  0  0  0  0  0  0  0  0
  1  2  2  0
  2  3  1  0
  2  4  1  0
  4  5  1  0
  7  8  1  0
  3  7  1  0
  5  6  2  0
  6  9  1  0
  9 10  2  0
 10 11  1  0
 11  8  2  0
  8  5  1  0
M  END

$$$$
