No_2859-gen_results/8p0m/2024-11-27-11-27-31/
     RDKit          3D

 23 24  0  0  0  0  0  0  0  0999 V2000
  -28.0162   -0.8135   28.8779 C   0  0  0  0  0  0  0  0  0  0  0  0
  -28.4690   -0.7850   29.8287 C   0  0  0  0  0  0  0  0  0  0  0  0
  -28.1816    0.4277   28.1134 C   0  0  0  0  0  0  0  0  0  0  0  0
  -28.9841    1.4155   28.5154 C   0  0  0  0  0  0  0  0  0  0  0  0
  -29.3802    0.1384   30.4612 C   0  0  0  0  0  0  0  0  0  0  0  0
  -29.5415    1.2736   29.7242 C   0  0  0  0  0  0  0  0  0  0  0  0
  -27.4586    0.4934   26.7701 C   0  0  0  0  0  0  0  0  0  0  0  0
  -26.1290    0.3456   26.7317 N   0  0  0  0  0  0  0  0  0  0  0  0
  -25.2521    1.1879   27.3425 C   0  0  0  0  0  0  0  0  0  0  0  0
  -23.8943    0.7706   27.5690 C   0  0  0  0  0  0  0  0  0  0  0  0
  -22.8756    1.6929   27.5902 C   0  0  0  0  0  0  0  0  0  0  0  0
  -25.5501    2.5339   27.5504 C   0  0  0  0  0  0  0  0  0  0  0  0
  -24.5420    3.4962   27.8278 C   0  0  0  0  0  0  0  0  0  0  0  0
  -23.0591    3.0344   27.6545 C   0  0  0  0  0  0  0  0  0  0  0  0
  -28.0513    0.7593   25.7608 O   0  0  0  0  0  0  0  0  0  0  0  0
  -21.6079    1.2842   27.7055 F   0  0  0  0  0  0  0  0  0  0  0  0
  -24.7985    4.9009   27.9150 C   0  0  0  0  0  0  0  0  0  0  0  0
  -26.0137    5.1412   27.8483 O   0  0  0  0  0  0  0  0  0  0  0  0
  -23.9483    5.7545   27.8595 O   0  0  0  0  0  0  0  0  0  0  0  0
  -28.3094   -2.1228   30.7802 C   0  0  0  0  0  0  0  0  0  0  0  0
  -27.2401   -2.4938   30.9725 O   0  0  0  0  0  0  0  0  0  0  0  0
  -29.3445   -2.6639   31.2471 O   0  0  0  0  0  0  0  0  0  0  0  0
  -30.6160    2.5263   30.3773 Cl  0  0  0  0  0  0  0  0  0  0  0  0
  3  7  1  0
  7  8  1  0
  8  9  1  0
  7 15  2  0
 11 16  1  0
 13 17  1  0
 17 18  2  0
 17 19  1  0
  2 20  1  0
 20 21  1  0
 20 22  2  0
  6 23  1  0
  9 10  2  0
 10 11  1  0
 11 14  2  0
 14 13  1  0
 13 12  2  0
 12  9  1  0
  1  2  2  0
  2  5  1  0
  5  6  2  0
  6  4  1  0
  4  3  2  0
  3  1  1  0
M  END

$$$$
