No_2933-gen_results/8p0m/2024-11-27-11-27-31/
     RDKit          3D

 22 24  0  0  0  0  0  0  0  0999 V2000
  -28.0162   -0.8135   28.8779 C   0  0  0  0  0  0  0  0  0  0  0  0
  -28.4690   -0.7850   29.8287 C   0  0  0  0  0  0  0  0  0  0  0  0
  -26.5455   -0.8762   28.8500 C   0  0  0  0  0  0  0  0  0  0  0  0
  -25.8041   -1.0324   30.0571 C   0  0  0  0  0  0  0  0  0  0  0  0
  -26.5373   -1.0386   31.2171 C   0  0  0  0  0  0  0  0  0  0  0  0
  -27.8843   -0.9532   31.1862 C   0  0  0  0  0  0  0  0  0  0  0  0
  -24.3655   -1.1134   30.0483 C   0  0  0  0  0  0  0  0  0  0  0  0
  -23.7447   -1.3689   30.8125 C   0  0  0  0  0  0  0  0  0  0  0  0
  -22.2072   -1.2504   30.8577 C   0  0  0  0  0  0  0  0  0  0  0  0
  -21.6856   -0.8191   29.6527 C   0  0  0  0  0  0  0  0  0  0  0  0
  -23.8081   -0.7877   28.6694 C   0  0  0  0  0  0  0  0  0  0  0  0
  -22.4454   -0.5727   28.5982 C   0  0  0  0  0  0  0  0  0  0  0  0
  -25.8311   -0.8188   27.7156 N   0  0  0  0  0  0  0  0  0  0  0  0
  -24.6318   -0.5710   27.6428 N   0  0  0  0  0  0  0  0  0  0  0  0
  -30.0605   -0.7553   29.9587 C   0  0  0  0  0  0  0  0  0  0  0  0
  -30.6005   -0.0645   29.2447 O   0  0  0  0  0  0  0  0  0  0  0  0
  -30.6978   -1.4918   30.8157 O   0  0  0  0  0  0  0  0  0  0  0  0
  -31.9178   -0.2235   28.7257 C   0  0  0  0  0  0  0  0  0  0  0  0
  -32.0082   -0.1806   27.4512 C   0  0  0  0  0  0  0  0  0  0  0  0
  -31.1137    0.4608   26.6429 C   0  0  0  0  0  0  0  0  0  0  0  0
  -31.0761    0.3263   25.1681 C   0  0  0  0  0  0  0  0  0  0  0  0
  -32.1000   -0.5381   24.6387 C   0  0  0  0  0  0  0  0  0  0  0  0
  2 15  1  0
 15 16  1  0
 15 17  2  0
 16 18  1  0
 18 19  2  3
 19 20  1  0
 20 21  2  3
 21 22  1  0
  7  8  1  0
  8  9  2  0
  9 10  1  0
 10 12  2  0
 12 11  1  0
  4  7  2  0
  7 11  1  0
 11 14  2  0
 14 13  1  0
 13  3  2  0
  1  2  2  0
  2  6  1  0
  6  5  2  0
  5  4  1  0
  4  3  1  0
  3  1  1  0
M  END

$$$$
