No_2970-gen_results/8p0m/2024-11-27-11-27-31/
     RDKit          3D

 27 29  0  0  0  0  0  0  0  0999 V2000
  -28.0162   -0.8135   28.8779 C   0  0  0  0  0  0  0  0  0  0  0  0
  -27.0636   -0.1189   28.6079 C   0  0  0  0  0  0  0  0  0  0  0  0
  -25.7923   -0.4302   29.0761 C   0  0  0  0  0  0  0  0  0  0  0  0
  -24.5456    0.3494   28.8225 C   0  0  0  0  0  0  0  0  0  0  0  0
  -23.2409    0.0217   29.3323 C   0  0  0  0  0  0  0  0  0  0  0  0
  -27.8820   -1.8995   29.8633 C   0  0  0  0  0  0  0  0  0  0  0  0
  -26.6706   -2.3272   30.3212 C   0  0  0  0  0  0  0  0  0  0  0  0
  -25.5433   -1.5852   29.9316 C   0  0  0  0  0  0  0  0  0  0  0  0
  -22.1918    0.8302   29.0004 C   0  0  0  0  0  0  0  0  0  0  0  0
  -22.1472    1.7783   28.0287 C   0  0  0  0  0  0  0  0  0  0  0  0
  -24.6254    1.6458   28.1951 C   0  0  0  0  0  0  0  0  0  0  0  0
  -23.6536    2.3600   27.9655 C   0  0  0  0  0  0  0  0  0  0  0  0
  -29.0618   -2.7308   30.2929 C   0  0  0  0  0  0  0  0  0  0  0  0
  -28.9996   -3.9400   30.2763 O   0  0  0  0  0  0  0  0  0  0  0  0
  -30.1097   -2.1472   30.7078 O   0  0  0  0  0  0  0  0  0  0  0  0
  -31.2711   -2.8306   30.9689 C   0  0  0  0  0  0  0  0  0  0  0  0
  -31.4446   -3.2786   32.1646 C   0  0  0  0  0  0  0  0  0  0  0  0
  -30.9306   -2.4639   33.1401 C   0  0  0  0  0  0  0  0  0  0  0  0
  -30.1818   -2.9059   33.8712 O   0  0  0  0  0  0  0  0  0  0  0  0
  -32.8553   -3.5495   32.5166 O   0  0  0  0  0  0  0  0  0  0  0  0
  -32.3408   -1.7431   30.5293 C   0  0  0  0  0  0  0  0  0  0  0  0
  -32.1069   -0.4955   30.7779 C   0  0  0  0  0  0  0  0  0  0  0  0
  -33.0457    0.5000   30.2489 C   0  0  0  0  0  0  0  0  0  0  0  0
  -32.8077    1.8968   30.4841 C   0  0  0  0  0  0  0  0  0  0  0  0
  -31.6284    2.2862   31.1428 C   0  0  0  0  0  0  0  0  0  0  0  0
  -30.7003    1.3038   31.5758 C   0  0  0  0  0  0  0  0  0  0  0  0
  -30.9884    0.0134   31.3470 C   0  0  0  0  0  0  0  0  0  0  0  0
  3  4  1  0
  6 13  1  0
 13 14  2  0
 13 15  1  0
 15 16  1  0
 16 17  1  0
 17 18  1  0
 18 19  2  0
 17 20  1  0
 16 21  1  0
 21 22  1  0
 22 23  2  0
 23 24  1  0
 24 25  2  0
 25 26  1  0
 26 27  2  0
 27 22  1  0
  1  2  2  0
  2  3  1  0
  3  8  2  0
  8  7  1  0
  7  6  2  0
  6  1  1  0
  4  5  2  0
  5  9  1  0
  9 10  2  0
 10 12  1  0
 12 11  2  0
 11  4  1  0
M  END

$$$$
