No_216-gen_results/8p0m/2024-11-27-11-27-31/
     RDKit          3D

 14 15  0  0  0  0  0  0  0  0999 V2000
  -28.1229   -1.3353   28.4874 O   0  0  0  0  0  0  0  0  0  0  0  0
  -28.5208   -0.4363   29.0779 C   0  0  0  0  0  0  0  0  0  0  0  0
  -27.6655    0.1129   30.0346 C   0  0  0  0  0  0  0  0  0  0  0  0
  -29.5662    0.3302   28.6099 N   0  0  0  0  0  0  0  0  0  0  0  0
  -26.4276    0.0638   30.0544 C   0  0  0  0  0  0  0  0  0  0  0  0
  -30.1044    1.4199   29.2103 C   0  0  0  0  0  0  0  0  0  0  0  0
  -30.9049    2.0756   28.7385 C   0  0  0  0  0  0  0  0  0  0  0  0
  -31.5304    3.2859   29.3366 C   0  0  0  0  0  0  0  0  0  0  0  0
  -31.0597    3.6078   30.6099 C   0  0  0  0  0  0  0  0  0  0  0  0
  -30.0989    2.8032   31.1892 C   0  0  0  0  0  0  0  0  0  0  0  0
  -29.5647    1.7164   30.5830 C   0  0  0  0  0  0  0  0  0  0  0  0
  -28.4192    1.1128   31.0342 C   0  0  0  0  0  0  0  0  0  0  0  0
  -30.1481   -0.2074   27.4168 C   0  0  0  0  0  0  0  0  0  0  0  0
  -30.8656    0.8247   26.6356 C   0  0  0  0  0  0  0  0  0  0  0  0
  1  2  2  0
  2  3  1  0
  2  4  1  0
  3  5  1  0
  4  6  1  0
  3 12  1  0
 11 12  1  0
  4 13  1  0
 13 14  1  0
  6  7  2  0
  7  8  1  0
  8  9  2  0
  9 10  1  0
 10 11  2  0
 11  6  1  0
M  END

$$$$
