No_265-gen_results/8p0m/2024-11-27-11-27-31/
     RDKit          3D

  3  2  0  0  0  0  0  0  0  0999 V2000
  -28.1146   -0.6256   29.0813 Br  0  0  0  0  0  0  0  0  0  0  0  0
  -26.9268    0.4545   28.6846 C   0  0  0  0  0  0  0  0  0  0  0  0
  -25.8457    0.7043   29.3312 C   0  0  0  0  0  0  0  0  0  0  0  0
  1  2  1  0
  2  3  3  0
M  END

$$$$
