No_2766-gen_results/8p0m/2024-11-27-11-27-31/
     RDKit          3D

 25 26  0  0  0  0  0  0  0  0999 V2000
  -28.0162   -0.8135   28.8779 C   0  0  0  0  0  0  0  0  0  0  0  0
  -28.4690   -0.7850   29.8287 C   0  0  0  0  0  0  0  0  0  0  0  0
  -26.5455   -0.8762   28.8500 C   0  0  0  0  0  0  0  0  0  0  0  0
  -25.6825   -0.7773   27.6829 C   0  0  0  0  0  0  0  0  0  0  0  0
  -29.9909   -0.7300   29.9814 C   0  0  0  0  0  0  0  0  0  0  0  0
  -24.2640   -0.7731   27.9513 C   0  0  0  0  0  0  0  0  0  0  0  0
  -23.7548   -0.9500   29.2468 C   0  0  0  0  0  0  0  0  0  0  0  0
  -25.6279   -1.0194   30.0116 C   0  0  0  0  0  0  0  0  0  0  0  0
  -24.4691   -1.0218   30.2986 C   0  0  0  0  0  0  0  0  0  0  0  0
  -30.6100   -0.5325   28.7625 C   0  0  0  0  0  0  0  0  0  0  0  0
  -29.8992   -0.3345   27.6475 C   0  0  0  0  0  0  0  0  0  0  0  0
  -28.5656   -0.3538   27.6668 C   0  0  0  0  0  0  0  0  0  0  0  0
  -30.5130   -0.0325   26.4693 O   0  0  0  0  0  0  0  0  0  0  0  0
  -22.3521   -0.8930   29.2512 F   0  0  0  0  0  0  0  0  0  0  0  0
  -29.9156   -0.2530   25.2984 C   0  0  0  0  0  0  0  0  0  0  0  0
  -30.8294   -1.0241   31.4366 Cl  0  0  0  0  0  0  0  0  0  0  0  0
  -30.2106    0.5870   24.2678 C   0  0  0  0  0  0  0  0  0  0  0  0
  -29.1926    1.3728   23.8648 C   0  0  0  0  0  0  0  0  0  0  0  0
  -27.8421    1.0209   24.1431 C   0  0  0  0  0  0  0  0  0  0  0  0
  -26.9469    1.8340   24.8159 C   0  0  0  0  0  0  0  0  0  0  0  0
  -25.6577    1.3135   25.1960 C   0  0  0  0  0  0  0  0  0  0  0  0
  -24.6446    2.0374   25.8391 C   0  0  0  0  0  0  0  0  0  0  0  0
  -23.3304    1.6338   26.0570 C   0  0  0  0  0  0  0  0  0  0  0  0
  -22.4717    2.5304   26.7722 C   0  0  0  0  0  0  0  0  0  0  0  0
  -21.3290    1.8578   27.3782 C   0  0  0  0  0  0  0  0  0  0  0  0
  1  3  1  0
 11 13  1  0
  7 14  1  0
 13 15  1  0
  5 16  1  0
 15 17  2  3
 17 18  1  0
 18 19  2  3
 19 20  1  0
 20 21  2  3
 21 22  1  0
 22 23  2  3
 23 24  1  0
 24 25  1  0
  3  4  2  0
  4  6  1  0
  6  7  2  0
  7  9  1  0
  9  8  2  0
  8  3  1  0
  1  2  2  0
  2  5  1  0
  5 10  2  0
 10 11  1  0
 11 12  2  0
 12  1  1  0
M  END

$$$$
