No_2729-gen_results/8p0m/2024-11-27-11-27-31/
     RDKit          3D

 23 24  0  0  0  0  0  0  0  0999 V2000
  -28.0162   -0.8135   28.8779 C   0  0  0  0  0  0  0  0  0  0  0  0
  -28.4690   -0.7850   29.8287 C   0  0  0  0  0  0  0  0  0  0  0  0
  -27.1356    0.2359   28.5352 C   0  0  0  0  0  0  0  0  0  0  0  0
  -26.8745    1.2825   29.3982 C   0  0  0  0  0  0  0  0  0  0  0  0
  -28.3613    0.1987   30.9244 C   0  0  0  0  0  0  0  0  0  0  0  0
  -27.5277    1.2234   30.6356 C   0  0  0  0  0  0  0  0  0  0  0  0
  -26.5269    0.4660   27.3750 F   0  0  0  0  0  0  0  0  0  0  0  0
  -29.4107   -1.9875   30.3118 C   0  0  0  0  0  0  0  0  0  0  0  0
  -30.3797   -1.8352   29.8682 O   0  0  0  0  0  0  0  0  0  0  0  0
  -28.9230   -2.9153   30.9880 F   0  0  0  0  0  0  0  0  0  0  0  0
  -26.0082    2.4088   29.0517 C   0  0  0  0  0  0  0  0  0  0  0  0
  -25.7891    2.9303   28.0077 N   0  0  0  0  0  0  0  0  0  0  0  0
  -24.5664    3.3087   27.5435 C   0  0  0  0  0  0  0  0  0  0  0  0
  -25.3577    2.9415   30.1020 O   0  0  0  0  0  0  0  0  0  0  0  0
  -24.3994    3.0873   26.0568 C   0  0  0  0  0  0  0  0  0  0  0  0
  -24.0162    1.7602   25.7349 C   0  0  0  0  0  0  0  0  0  0  0  0
  -22.8495    1.3989   26.3093 C   0  0  0  0  0  0  0  0  0  0  0  0
  -22.6380    1.6264   27.7406 C   0  0  0  0  0  0  0  0  0  0  0  0
  -23.5000    3.1887   28.1346 O   0  0  0  0  0  0  0  0  0  0  0  0
  -21.8129    1.2246   28.6227 C   0  0  0  0  0  0  0  0  0  0  0  0
  -20.9173    0.5078   28.2858 O   0  0  0  0  0  0  0  0  0  0  0  0
  -22.3584    1.0472   29.8685 O   0  0  0  0  0  0  0  0  0  0  0  0
  -26.9621    3.7207   27.4704 C   0  0  0  0  0  0  0  0  0  0  0  0
  3  7  1  0
  2  8  1  0
  8  9  2  0
  8 10  1  0
  4 11  1  0
 11 12  1  0
 12 13  1  0
 11 14  2  0
 13 15  1  0
 15 16  1  0
 16 17  1  0
 17 18  2  0
 13 19  1  0
 18 19  1  0
 18 20  1  0
 20 21  2  0
 20 22  1  0
 12 23  1  0
  1  2  2  0
  2  5  1  0
  5  6  2  0
  6  4  1  0
  4  3  2  0
  3  1  1  0
M  END

$$$$
