No_2860-gen_results/8p0m/2024-11-27-11-27-31/
     RDKit          3D

 11 11  0  0  0  0  0  0  0  0999 V2000
  -28.1229   -1.3353   28.4874 O   0  0  0  0  0  0  0  0  0  0  0  0
  -28.5208   -0.4363   29.0779 C   0  0  0  0  0  0  0  0  0  0  0  0
  -28.5893    0.5916   28.9464 C   0  0  0  0  0  0  0  0  0  0  0  0
  -29.0845   -0.9257   30.3785 F   0  0  0  0  0  0  0  0  0  0  0  0
  -29.1316    1.4403   29.7107 F   0  0  0  0  0  0  0  0  0  0  0  0
  -28.0145    1.2504   27.7037 C   0  0  0  0  0  0  0  0  0  0  0  0
  -27.0632    1.3654   27.0856 C   0  0  0  0  0  0  0  0  0  0  0  0
  -26.7984    1.7388   25.7713 C   0  0  0  0  0  0  0  0  0  0  0  0
  -28.9293    2.3026   27.0604 C   0  0  0  0  0  0  0  0  0  0  0  0
  -28.8019    2.8951   25.8535 C   0  0  0  0  0  0  0  0  0  0  0  0
  -27.6151    2.6952   25.2030 C   0  0  0  0  0  0  0  0  0  0  0  0
  1  2  2  0
  2  3  1  0
  2  4  1  0
  3  5  1  0
  3  6  1  0
  6  7  2  0
  7  8  1  0
  8 11  2  0
 11 10  1  0
 10  9  2  0
  9  6  1  0
M  END

$$$$
