No_2478-gen_results/8p0m/2024-11-27-11-27-31/
     RDKit          3D

 15 16  0  0  0  0  0  0  0  0999 V2000
  -28.0162   -0.8135   28.8779 C   0  0  0  0  0  0  0  0  0  0  0  0
  -28.4690   -0.7850   29.8287 C   0  0  0  0  0  0  0  0  0  0  0  0
  -26.5042   -0.7777   28.8766 C   0  0  0  0  0  0  0  0  0  0  0  0
  -25.8103   -0.8531   30.1028 C   0  0  0  0  0  0  0  0  0  0  0  0
  -27.9906   -0.8916   31.2257 C   0  0  0  0  0  0  0  0  0  0  0  0
  -26.6042   -0.8676   31.2652 C   0  0  0  0  0  0  0  0  0  0  0  0
  -24.1648   -0.7915   30.1717 Cl  0  0  0  0  0  0  0  0  0  0  0  0
  -30.0988   -0.8363   29.8511 C   0  0  0  0  0  0  0  0  0  0  0  0
  -30.7002   -1.8027   30.2428 N   0  0  0  0  0  0  0  0  0  0  0  0
  -30.1915   -2.7943   30.7826 C   0  0  0  0  0  0  0  0  0  0  0  0
  -31.0996   -4.0092   30.9794 C   0  0  0  0  0  0  0  0  0  0  0  0
  -32.0976   -1.9114   29.9654 C   0  0  0  0  0  0  0  0  0  0  0  0
  -30.5252    0.2426   29.3902 O   0  0  0  0  0  0  0  0  0  0  0  0
  -32.8117   -3.0584   30.1150 C   0  0  0  0  0  0  0  0  0  0  0  0
  -32.3260   -4.0744   30.7558 C   0  0  0  0  0  0  0  0  0  0  0  0
  4  7  1  0
  2  8  1  0
  8  9  1  0
  9 10  1  0
  9 12  1  0
  8 13  2  0
 11 15  1  0
 14 15  1  0
 10 11  1  0
 14 12  1  0
  1  2  2  0
  2  5  1  0
  5  6  2  0
  6  4  1  0
  4  3  2  0
  3  1  1  0
M  END

$$$$
