No_2433-gen_results/8p0m/2024-11-27-11-27-31/
     RDKit          3D

 27 30  0  0  0  0  0  0  0  0999 V2000
  -28.0162   -0.8135   28.8779 C   0  0  0  0  0  0  0  0  0  0  0  0
  -28.4690   -0.7850   29.8287 C   0  0  0  0  0  0  0  0  0  0  0  0
  -28.1960    0.3478   28.0550 C   0  0  0  0  0  0  0  0  0  0  0  0
  -29.0191    1.3501   28.3782 C   0  0  0  0  0  0  0  0  0  0  0  0
  -29.4107    0.1803   30.3782 C   0  0  0  0  0  0  0  0  0  0  0  0
  -29.2236    2.4924   27.5425 C   0  0  0  0  0  0  0  0  0  0  0  0
  -29.5873    1.2242   29.6185 C   0  0  0  0  0  0  0  0  0  0  0  0
  -29.6215    2.7611   26.5109 C   0  0  0  0  0  0  0  0  0  0  0  0
  -30.1286    1.5782   25.7278 C   0  0  0  0  0  0  0  0  0  0  0  0
  -30.5514    1.8477   24.3755 C   0  0  0  0  0  0  0  0  0  0  0  0
  -30.8297    2.7553   24.0555 C   0  0  0  0  0  0  0  0  0  0  0  0
  -30.4996    4.0919   24.6261 C   0  0  0  0  0  0  0  0  0  0  0  0
  -29.9146    4.0247   25.8993 C   0  0  0  0  0  0  0  0  0  0  0  0
  -27.8512    3.2442   27.8085 C   0  0  0  0  0  0  0  0  0  0  0  0
  -28.0109    4.3850   28.6744 C   0  0  0  0  0  0  0  0  0  0  0  0
  -26.8720    5.1103   28.9774 C   0  0  0  0  0  0  0  0  0  0  0  0
  -25.6241    4.7951   28.3327 C   0  0  0  0  0  0  0  0  0  0  0  0
  -25.5233    3.7310   27.4796 C   0  0  0  0  0  0  0  0  0  0  0  0
  -26.6491    2.9772   27.2343 C   0  0  0  0  0  0  0  0  0  0  0  0
  -30.5597    2.3176   30.0471 C   0  0  0  0  0  0  0  0  0  0  0  0
  -30.5765    3.3216   30.0101 N   0  0  0  0  0  0  0  0  0  0  0  0
  -31.4893    4.2836   30.4810 C   0  0  0  0  0  0  0  0  0  0  0  0
  -31.8265    1.6604   30.2557 C   0  0  0  0  0  0  0  0  0  0  0  0
  -31.1161    5.6199   30.7185 C   0  0  0  0  0  0  0  0  0  0  0  0
  -32.7660    3.9135   30.7390 C   0  0  0  0  0  0  0  0  0  0  0  0
  -32.7271    2.2948   30.5475 C   0  0  0  0  0  0  0  0  0  0  0  0
  -30.2681    5.9454   31.5196 O   0  0  0  0  0  0  0  0  0  0  0  0
  4  6  1  0
  6 14  1  0
  7 20  1  0
 22 24  1  0
 24 27  2  0
  6  8  1  0
 14 15  2  0
 15 16  1  0
 16 17  2  0
 17 18  1  0
 18 19  2  0
 19 14  1  0
 20 21  2  0
 21 22  1  0
 22 25  2  0
 25 26  1  0
 26 23  2  0
 23 20  1  0
  8  9  2  0
  9 10  1  0
 10 11  2  0
 11 12  1  0
 12 13  2  0
 13  8  1  0
  1  2  2  0
  2  5  1  0
  5  7  2  0
  7  4  1  0
  4  3  2  0
  3  1  1  0
M  END

$$$$
