No_2300-gen_results/8p0m/2024-11-27-11-27-31/
     RDKit          3D

 14 15  0  0  0  0  0  0  0  0999 V2000
  -28.0162   -0.8135   28.8779 C   0  0  0  0  0  0  0  0  0  0  0  0
  -28.4690   -0.7850   29.8287 C   0  0  0  0  0  0  0  0  0  0  0  0
  -27.1356    0.2359   28.5352 C   0  0  0  0  0  0  0  0  0  0  0  0
  -26.8050    1.0509   29.2763 C   0  0  0  0  0  0  0  0  0  0  0  0
  -28.2372    0.1503   30.9300 C   0  0  0  0  0  0  0  0  0  0  0  0
  -27.3522    1.1239   30.6071 C   0  0  0  0  0  0  0  0  0  0  0  0
  -26.4705    0.1962   27.1308 C   0  0  0  0  0  0  0  0  0  0  0  0
  -27.0340    0.9215   26.1614 C   0  0  0  0  0  0  0  0  0  0  0  0
  -25.0013    0.5049   27.2078 C   0  0  0  0  0  0  0  0  0  0  0  0
  -24.1717   -0.1013   28.1320 C   0  0  0  0  0  0  0  0  0  0  0  0
  -22.8313    0.3637   28.2604 C   0  0  0  0  0  0  0  0  0  0  0  0
  -22.3413    1.4071   27.4398 C   0  0  0  0  0  0  0  0  0  0  0  0
  -23.2376    2.0720   26.6025 C   0  0  0  0  0  0  0  0  0  0  0  0
  -24.5469    1.6690   26.5481 C   0  0  0  0  0  0  0  0  0  0  0  0
  3  7  1  0
  7  8  1  0
  7  9  1  0
  9 10  2  0
 10 11  1  0
 11 12  2  0
 12 13  1  0
 13 14  2  0
 14  9  1  0
  1  2  2  0
  2  5  1  0
  5  6  2  0
  6  4  1  0
  4  3  2  0
  3  1  1  0
M  END

$$$$
