No_2062-gen_results/8p0m/2024-11-27-11-27-31/
     RDKit          3D

 25 27  0  0  0  0  0  0  0  0999 V2000
  -28.0162   -0.8135   28.8779 C   0  0  0  0  0  0  0  0  0  0  0  0
  -28.4690   -0.7850   29.8287 C   0  0  0  0  0  0  0  0  0  0  0  0
  -26.5042   -0.7777   28.8766 C   0  0  0  0  0  0  0  0  0  0  0  0
  -25.8103   -0.8531   30.1028 C   0  0  0  0  0  0  0  0  0  0  0  0
  -27.9906   -0.8916   31.2257 C   0  0  0  0  0  0  0  0  0  0  0  0
  -26.6042   -0.8676   31.2652 C   0  0  0  0  0  0  0  0  0  0  0  0
  -24.3894   -0.8049   30.1638 C   0  0  0  0  0  0  0  0  0  0  0  0
  -23.8172    0.4762   29.9117 C   0  0  0  0  0  0  0  0  0  0  0  0
  -22.5010    0.5449   29.4097 C   0  0  0  0  0  0  0  0  0  0  0  0
  -21.7696   -0.6524   29.2129 C   0  0  0  0  0  0  0  0  0  0  0  0
  -23.6939   -1.8206   29.2518 C   0  0  0  0  0  0  0  0  0  0  0  0
  -22.3030   -1.7892   29.1620 C   0  0  0  0  0  0  0  0  0  0  0  0
  -23.8764   -1.2295   31.6716 C   0  0  0  0  0  0  0  0  0  0  0  0
  -24.4271    1.7392   30.3631 C   0  0  0  0  0  0  0  0  0  0  0  0
  -24.5041    2.1460   31.5027 O   0  0  0  0  0  0  0  0  0  0  0  0
  -25.0474    2.4587   29.3673 N   0  0  0  0  0  0  0  0  0  0  0  0
  -25.2183    2.2467   28.0360 C   0  0  0  0  0  0  0  0  0  0  0  0
  -26.1466    2.9973   27.3755 C   0  0  0  0  0  0  0  0  0  0  0  0
  -25.8922    3.5906   29.8084 C   0  0  0  0  0  0  0  0  0  0  0  0
  -26.6934    4.3311   29.0425 C   0  0  0  0  0  0  0  0  0  0  0  0
  -26.7934    4.0521   27.7479 C   0  0  0  0  0  0  0  0  0  0  0  0
  -30.0704   -0.7479   29.8259 C   0  0  0  0  0  0  0  0  0  0  0  0
  -30.3667   -0.5776   28.7358 F   0  0  0  0  0  0  0  0  0  0  0  0
  -30.4856    0.2807   30.6058 F   0  0  0  0  0  0  0  0  0  0  0  0
  -30.5929   -1.8353   30.2998 F   0  0  0  0  0  0  0  0  0  0  0  0
  4  7  1  0
  7  8  1  0
  9 10  1  0
  7 11  1  0
 10 12  1  0
  7 13  1  0
  8 14  1  0
 14 15  2  0
 14 16  1  0
 16 17  1  0
 16 19  1  0
 18 21  1  0
 20 21  1  0
  2 22  1  0
 22 23  1  0
 22 24  1  0
 22 25  1  0
 17 18  1  0
 20 19  1  0
  8  9  1  0
 12 11  1  0
  1  2  2  0
  2  5  1  0
  5  6  2  0
  6  4  1  0
  4  3  2  0
  3  1  1  0
M  END

$$$$
