No_200-gen_results/8p0m/2024-11-27-11-27-31/
     RDKit          3D

 35 38  0  0  0  0  0  0  0  0999 V2000
  -28.0162   -0.8135   28.8779 C   0  0  0  0  0  0  0  0  0  0  0  0
  -28.4690   -0.7850   29.8287 C   0  0  0  0  0  0  0  0  0  0  0  0
  -26.5042   -0.7777   28.8766 C   0  0  0  0  0  0  0  0  0  0  0  0
  -25.6540   -0.6597   27.7191 C   0  0  0  0  0  0  0  0  0  0  0  0
  -27.9180   -0.9374   31.1824 C   0  0  0  0  0  0  0  0  0  0  0  0
  -26.5423   -0.9399   31.2606 C   0  0  0  0  0  0  0  0  0  0  0  0
  -25.7832   -0.8935   30.1201 C   0  0  0  0  0  0  0  0  0  0  0  0
  -25.9259    0.2819   26.7445 C   0  0  0  0  0  0  0  0  0  0  0  0
  -25.6258    1.4719   26.8191 C   0  0  0  0  0  0  0  0  0  0  0  0
  -24.8156    1.9657   27.9646 C   0  0  0  0  0  0  0  0  0  0  0  0
  -24.4272    3.3539   28.0184 C   0  0  0  0  0  0  0  0  0  0  0  0
  -24.7930    4.1461   26.9053 C   0  0  0  0  0  0  0  0  0  0  0  0
  -25.3852    3.6546   25.7429 C   0  0  0  0  0  0  0  0  0  0  0  0
  -25.7726    2.3656   25.7680 C   0  0  0  0  0  0  0  0  0  0  0  0
  -26.1625   -0.5085   25.2142 Cl  0  0  0  0  0  0  0  0  0  0  0  0
  -30.0543   -0.7549   29.8670 C   0  0  0  0  0  0  0  0  0  0  0  0
  -30.6317   -1.7234   30.1515 O   0  0  0  0  0  0  0  0  0  0  0  0
  -30.6078    0.3190   29.4594 O   0  0  0  0  0  0  0  0  0  0  0  0
  -24.6173   -1.3190   27.8247 O   0  0  0  0  0  0  0  0  0  0  0  0
  -24.3496    5.4538   26.9812 O   0  0  0  0  0  0  0  0  0  0  0  0
  -25.0069    6.4508   26.2979 C   0  0  0  0  0  0  0  0  0  0  0  0
  -25.1843    7.5897   27.3629 C   0  0  0  0  0  0  0  0  0  0  0  0
  -25.9500    7.3053   28.3794 N   0  0  0  0  0  0  0  0  0  0  0  0
  -26.7971    6.5075   28.5541 C   0  0  0  0  0  0  0  0  0  0  0  0
  -27.3491    6.1929   29.3779 C   0  0  0  0  0  0  0  0  0  0  0  0
  -28.3618    5.1135   29.5918 C   0  0  0  0  0  0  0  0  0  0  0  0
  -28.5751    4.3906   28.4072 C   0  0  0  0  0  0  0  0  0  0  0  0
  -27.9397    4.6717   27.2757 C   0  0  0  0  0  0  0  0  0  0  0  0
  -27.0515    5.6847   27.2678 C   0  0  0  0  0  0  0  0  0  0  0  0
  -26.4815    6.1494   26.0474 C   0  0  0  0  0  0  0  0  0  0  0  0
  -25.4175    8.0956   29.6145 C   0  0  0  0  0  0  0  0  0  0  0  0
  -26.0388    7.7598   30.6809 O   0  0  0  0  0  0  0  0  0  0  0  0
  -24.4233    9.0670   29.5100 C   0  0  0  0  0  0  0  0  0  0  0  0
  -23.4413    8.9725   30.4636 C   0  0  0  0  0  0  0  0  0  0  0  0
  -23.4597    8.3538   31.6451 C   0  0  0  0  0  0  0  0  0  0  0  0
  3  4  1  0
  4  8  1  0
  8 15  1  0
  2 16  1  0
 16 17  1  0
 16 18  2  0
  4 19  2  0
 12 20  1  0
 20 21  1  0
 21 22  1  0
 22 23  1  0
 23 24  1  0
 21 30  1  0
 29 30  1  0
 23 31  1  0
 31 32  2  0
 31 33  1  0
 33 34  1  0
 34 35  2  0
  8  9  1  0
  9 10  2  0
 10 11  1  0
 11 12  2  0
 12 13  1  0
 13 14  2  0
 14  9  1  0
 24 25  2  0
 25 26  1  0
 26 27  2  0
 27 28  1  0
 28 29  2  0
 29 24  1  0
  1  2  2  0
  2  5  1  0
  5  6  2  0
  6  7  1  0
  7  3  2  0
  3  1  1  0
M  END

$$$$
