No_2546-gen_results/8p0m/2024-11-27-11-27-31/
     RDKit          3D

 27 30  0  0  0  0  0  0  0  0999 V2000
  -28.0162   -0.8135   28.8779 C   0  0  0  0  0  0  0  0  0  0  0  0
  -28.4690   -0.7850   29.8287 C   0  0  0  0  0  0  0  0  0  0  0  0
  -26.5042   -0.7777   28.8766 C   0  0  0  0  0  0  0  0  0  0  0  0
  -25.8103   -0.8531   30.1028 C   0  0  0  0  0  0  0  0  0  0  0  0
  -27.9906   -0.8916   31.2257 C   0  0  0  0  0  0  0  0  0  0  0  0
  -26.6042   -0.8676   31.2652 C   0  0  0  0  0  0  0  0  0  0  0  0
  -29.9385   -0.8194   29.8358 O   0  0  0  0  0  0  0  0  0  0  0  0
  -30.5356   -0.1119   28.9448 C   0  0  0  0  0  0  0  0  0  0  0  0
  -31.4501   -0.5434   28.1111 C   0  0  0  0  0  0  0  0  0  0  0  0
  -32.0404    0.1645   27.0421 C   0  0  0  0  0  0  0  0  0  0  0  0
  -31.6050    1.5042   26.9115 C   0  0  0  0  0  0  0  0  0  0  0  0
  -30.6305    2.0115   27.7313 C   0  0  0  0  0  0  0  0  0  0  0  0
  -30.0462    1.2281   28.7239 C   0  0  0  0  0  0  0  0  0  0  0  0
  -24.3763   -0.8403   30.1385 C   0  0  0  0  0  0  0  0  0  0  0  0
  -23.6218   -0.6032   29.0639 C   0  0  0  0  0  0  0  0  0  0  0  0
  -22.1792   -0.4614   29.1722 C   0  0  0  0  0  0  0  0  0  0  0  0
  -21.4543   -0.0543   28.0504 C   0  0  0  0  0  0  0  0  0  0  0  0
  -22.1285    0.9123   27.2065 C   0  0  0  0  0  0  0  0  0  0  0  0
  -23.5625    1.0593   27.2627 C   0  0  0  0  0  0  0  0  0  0  0  0
  -24.2225    0.3755   28.2231 C   0  0  0  0  0  0  0  0  0  0  0  0
  -24.1470    1.9879   26.3096 C   0  0  0  0  0  0  0  0  0  0  0  0
  -25.0619    2.7682   26.6037 C   0  0  0  0  0  0  0  0  0  0  0  0
  -26.3862    2.6357   26.0938 C   0  0  0  0  0  0  0  0  0  0  0  0
  -27.3143    3.6120   26.2562 C   0  0  0  0  0  0  0  0  0  0  0  0
  -27.1411    4.6401   27.2290 C   0  0  0  0  0  0  0  0  0  0  0  0
  -25.9466    4.7978   27.8494 C   0  0  0  0  0  0  0  0  0  0  0  0
  -24.8649    3.9723   27.5457 C   0  0  0  0  0  0  0  0  0  0  0  0
  2  7  1  0
  7  8  1  0
  4 14  1  0
 19 21  1  0
 21 22  1  0
 14 15  1  0
 15 16  2  0
 16 17  1  0
 17 18  2  0
 18 19  1  0
 19 20  2  0
 20 15  1  0
 22 23  2  0
 23 24  1  0
 24 25  2  0
 25 26  1  0
 26 27  2  0
 27 22  1  0
  8  9  2  0
  9 10  1  0
 10 11  2  0
 11 12  1  0
 12 13  2  0
 13  8  1  0
  1  2  2  0
  2  5  1  0
  5  6  2  0
  6  4  1  0
  4  3  2  0
  3  1  1  0
M  END

$$$$
