No_2220-gen_results/8p0m/2024-11-27-11-27-31/
     RDKit          3D

 14 15  0  0  0  0  0  0  0  0999 V2000
  -28.0544   -1.0498   28.7246 N   0  0  0  0  0  0  0  0  0  0  0  0
  -28.6544   -0.5669   29.5076 C   0  0  0  0  0  0  0  0  0  0  0  0
  -27.2203   -0.1706   28.1254 C   0  0  0  0  0  0  0  0  0  0  0  0
  -25.8494   -0.4408   27.9396 C   0  0  0  0  0  0  0  0  0  0  0  0
  -24.9963    0.3709   27.1754 C   0  0  0  0  0  0  0  0  0  0  0  0
  -25.5420    1.4584   26.4725 C   0  0  0  0  0  0  0  0  0  0  0  0
  -27.5883    0.9746   27.2764 C   0  0  0  0  0  0  0  0  0  0  0  0
  -26.8092    1.7494   26.5822 C   0  0  0  0  0  0  0  0  0  0  0  0
  -29.1718   -0.8938   30.4566 C   0  0  0  0  0  0  0  0  0  0  0  0
  -28.9321   -2.2718   31.0277 C   0  0  0  0  0  0  0  0  0  0  0  0
  -29.6011   -2.8713   31.9767 C   0  0  0  0  0  0  0  0  0  0  0  0
  -30.2969   -2.1155   32.8398 C   0  0  0  0  0  0  0  0  0  0  0  0
  -30.5316   -0.7775   32.5657 C   0  0  0  0  0  0  0  0  0  0  0  0
  -30.0350   -0.1725   31.4430 C   0  0  0  0  0  0  0  0  0  0  0  0
  1  2  1  0
  1  3  1  0
  2  9  1  0
  9 10  2  0
 10 11  1  0
 11 12  2  0
 12 13  1  0
 13 14  2  0
 14  9  1  0
  3  4  2  0
  4  5  1  0
  5  6  2  0
  6  8  1  0
  8  7  2  0
  7  3  1  0
M  END

$$$$
