No_2751-gen_results/8p0m/2024-11-27-11-27-31/
     RDKit          3D

 26 27  0  0  0  0  0  0  0  0999 V2000
  -28.0162   -0.8135   28.8779 C   0  0  0  0  0  0  0  0  0  0  0  0
  -27.0636   -0.1190   28.6079 C   0  0  0  0  0  0  0  0  0  0  0  0
  -25.7923   -0.4302   29.0761 C   0  0  0  0  0  0  0  0  0  0  0  0
  -25.5756   -1.5654   29.9363 C   0  0  0  0  0  0  0  0  0  0  0  0
  -26.7354   -2.3004   30.2173 C   0  0  0  0  0  0  0  0  0  0  0  0
  -27.9184   -1.9537   29.7629 C   0  0  0  0  0  0  0  0  0  0  0  0
  -29.0001   -2.7012   30.1151 O   0  0  0  0  0  0  0  0  0  0  0  0
  -24.6739    0.5156   28.7788 C   0  0  0  0  0  0  0  0  0  0  0  0
  -24.4980    1.0802   27.6263 C   0  0  0  0  0  0  0  0  0  0  0  0
  -23.3118    1.8848   27.3777 C   0  0  0  0  0  0  0  0  0  0  0  0
  -22.1973    1.8036   28.1462 C   0  0  0  0  0  0  0  0  0  0  0  0
  -23.3181    0.2795   29.3845 C   0  0  0  0  0  0  0  0  0  0  0  0
  -22.1928    0.9565   29.1647 C   0  0  0  0  0  0  0  0  0  0  0  0
  -29.3540   -2.8179   31.4434 C   0  0  0  0  0  0  0  0  0  0  0  0
  -29.7772   -4.1288   31.7442 C   0  0  0  0  0  0  0  0  0  0  0  0
  -31.1516   -4.3149   31.5412 C   0  0  0  0  0  0  0  0  0  0  0  0
  -31.5628   -5.5291   31.4262 C   0  0  0  0  0  0  0  0  0  0  0  0
  -32.6769   -5.6987   30.8435 F   0  0  0  0  0  0  0  0  0  0  0  0
  -31.6871   -6.1625   32.6625 F   0  0  0  0  0  0  0  0  0  0  0  0
  -30.7800   -6.4128   30.7268 F   0  0  0  0  0  0  0  0  0  0  0  0
  -31.7239   -3.6747   32.6688 O   0  0  0  0  0  0  0  0  0  0  0  0
  -29.3055   -1.7861   32.3801 C   0  0  0  0  0  0  0  0  0  0  0  0
  -28.7427   -1.9464   33.5189 C   0  0  0  0  0  0  0  0  0  0  0  0
  -28.6819   -0.9915   34.4671 C   0  0  0  0  0  0  0  0  0  0  0  0
  -28.9408    0.3247   34.0963 C   0  0  0  0  0  0  0  0  0  0  0  0
  -29.5001    0.5744   32.8154 C   0  0  0  0  0  0  0  0  0  0  0  0
  6  7  1  0
  3  8  1  0
  7 14  1  0
 14 15  1  0
 15 16  1  0
 16 17  1  0
 17 18  1  0
 17 19  1  0
 17 20  1  0
 16 21  1  0
 14 22  1  0
 22 23  2  3
 23 24  1  0
 24 25  2  3
 25 26  1  0
  1  2  2  0
  2  3  1  0
  3  4  2  0
  4  5  1  0
  5  6  2  0
  6  1  1  0
  8  9  2  0
  9 10  1  0
 10 11  2  0
 11 13  1  0
 13 12  2  0
 12  8  1  0
M  END

$$$$
