No_2967-gen_results/8p0m/2024-11-27-11-27-31/
     RDKit          3D

 21 23  0  0  0  0  0  0  0  0999 V2000
  -28.0162   -0.8135   28.8779 C   0  0  0  0  0  0  0  0  0  0  0  0
  -28.4690   -0.7850   29.8287 C   0  0  0  0  0  0  0  0  0  0  0  0
  -26.5042   -0.7777   28.8766 C   0  0  0  0  0  0  0  0  0  0  0  0
  -25.8103   -0.8531   30.1028 C   0  0  0  0  0  0  0  0  0  0  0  0
  -27.9906   -0.8916   31.2257 C   0  0  0  0  0  0  0  0  0  0  0  0
  -26.6042   -0.8676   31.2652 C   0  0  0  0  0  0  0  0  0  0  0  0
  -29.9385   -0.8194   29.8358 O   0  0  0  0  0  0  0  0  0  0  0  0
  -30.6978   -1.6543   30.3501 C   0  0  0  0  0  0  0  0  0  0  0  0
  -24.3665   -0.8009   30.1517 C   0  0  0  0  0  0  0  0  0  0  0  0
  -23.8145    0.5247   29.9887 C   0  0  0  0  0  0  0  0  0  0  0  0
  -22.5460    0.6335   29.3529 C   0  0  0  0  0  0  0  0  0  0  0  0
  -21.8026   -0.5614   29.1016 C   0  0  0  0  0  0  0  0  0  0  0  0
  -22.4295   -1.7363   29.2027 N   0  0  0  0  0  0  0  0  0  0  0  0
  -23.6887   -1.8709   29.6447 C   0  0  0  0  0  0  0  0  0  0  0  0
  -24.1156   -3.0361   29.6744 O   0  0  0  0  0  0  0  0  0  0  0  0
  -31.7224   -2.0005   29.5577 C   0  0  0  0  0  0  0  0  0  0  0  0
  -32.1055   -1.2770   28.4999 C   0  0  0  0  0  0  0  0  0  0  0  0
  -33.0156   -1.7092   27.6079 C   0  0  0  0  0  0  0  0  0  0  0  0
  -33.6483   -3.0058   27.7648 C   0  0  0  0  0  0  0  0  0  0  0  0
  -33.2865   -3.7773   28.8307 C   0  0  0  0  0  0  0  0  0  0  0  0
  -32.2868   -3.3348   29.7123 C   0  0  0  0  0  0  0  0  0  0  0  0
  2  7  1  0
  7  8  1  0
  4  9  1  0
  9 10  1  0
 11 12  1  0
  9 14  1  0
 13 14  1  0
 14 15  2  0
  8 16  1  0
 10 11  1  0
 12 13  1  0
  1  2  2  0
  2  5  1  0
  5  6  2  0
  6  4  1  0
  4  3  2  0
  3  1  1  0
 16 17  2  0
 17 18  1  0
 18 19  2  0
 19 20  1  0
 20 21  2  0
 21 16  1  0
M  END

$$$$
