No_2617-gen_results/8p0m/2024-11-27-11-27-31/
     RDKit          3D

 28 29  0  0  0  0  0  0  0  0999 V2000
  -28.0162   -0.8135   28.8779 C   0  0  0  0  0  0  0  0  0  0  0  0
  -27.0636   -0.1190   28.6079 C   0  0  0  0  0  0  0  0  0  0  0  0
  -26.9716    0.7139   27.5060 C   0  0  0  0  0  0  0  0  0  0  0  0
  -28.1053    0.7744   26.6421 C   0  0  0  0  0  0  0  0  0  0  0  0
  -29.2008    0.1044   27.0527 C   0  0  0  0  0  0  0  0  0  0  0  0
  -29.2096   -0.6029   28.1853 C   0  0  0  0  0  0  0  0  0  0  0  0
  -30.3749    0.2232   26.1670 C   0  0  0  0  0  0  0  0  0  0  0  0
  -30.3266    0.0573   24.9664 O   0  0  0  0  0  0  0  0  0  0  0  0
  -31.5073    0.6887   26.6488 O   0  0  0  0  0  0  0  0  0  0  0  0
  -25.6960   -0.2180   29.4261 C   0  0  0  0  0  0  0  0  0  0  0  0
  -24.5895   -0.0538   28.9372 N   0  0  0  0  0  0  0  0  0  0  0  0
  -23.3813   -0.4063   29.3710 C   0  0  0  0  0  0  0  0  0  0  0  0
  -23.1501   -1.2819   30.2763 C   0  0  0  0  0  0  0  0  0  0  0  0
  -24.3806   -1.5894   31.0475 C   0  0  0  0  0  0  0  0  0  0  0  0
  -25.6728   -1.2716   30.4983 C   0  0  0  0  0  0  0  0  0  0  0  0
  -22.2411    0.1030   28.6581 N   0  0  0  0  0  0  0  0  0  0  0  0
  -22.2464    1.2529   27.8674 C   0  0  0  0  0  0  0  0  0  0  0  0
  -21.4737    1.5039   26.8503 C   0  0  0  0  0  0  0  0  0  0  0  0
  -22.9694    2.3330   28.4014 N   0  0  0  0  0  0  0  0  0  0  0  0
  -21.9114    2.4685   26.0630 O   0  0  0  0  0  0  0  0  0  0  0  0
  -28.0140    1.6086   25.6237 O   0  0  0  0  0  0  0  0  0  0  0  0
  -27.4496    2.8939   25.8364 C   0  0  0  0  0  0  0  0  0  0  0  0
  -32.7148    0.4287   26.0874 C   0  0  0  0  0  0  0  0  0  0  0  0
  -33.8197    0.5448   26.9303 C   0  0  0  0  0  0  0  0  0  0  0  0
  -33.6032    1.1136   28.1525 C   0  0  0  0  0  0  0  0  0  0  0  0
  -33.4628    2.4805   28.2132 C   0  0  0  0  0  0  0  0  0  0  0  0
  -34.1547    3.2987   27.6143 C   0  0  0  0  0  0  0  0  0  0  0  0
  -33.8883    4.7420   27.6230 C   0  0  0  0  0  0  0  0  0  0  0  0
  5  7  1  0
  7  8  2  0
  7  9  1  0
  2 10  1  0
 12 16  1  0
 16 17  1  0
 17 18  2  0
 17 19  1  0
 18 20  2  0
  4 21  1  0
 21 22  1  0
  9 23  1  0
 23 24  1  0
 24 25  1  0
 25 26  1  0
 26 27  2  3
 27 28  1  0
  1  2  2  0
  2  3  1  0
  3  4  2  0
  4  5  1  0
  5  6  2  0
  6  1  1  0
 10 11  2  0
 11 12  1  0
 12 13  2  0
 13 14  1  0
 14 15  2  0
 15 10  1  0
M  END

$$$$
