No_2745-gen_results/8p0m/2024-11-27-11-27-31/
     RDKit          3D

 22 24  0  0  0  0  0  0  0  0999 V2000
  -28.0162   -0.8135   28.8779 C   0  0  0  0  0  0  0  0  0  0  0  0
  -28.4690   -0.7850   29.8287 C   0  0  0  0  0  0  0  0  0  0  0  0
  -26.5455   -0.8762   28.8500 C   0  0  0  0  0  0  0  0  0  0  0  0
  -25.8041   -1.0324   30.0571 C   0  0  0  0  0  0  0  0  0  0  0  0
  -27.9437   -0.9869   31.2075 C   0  0  0  0  0  0  0  0  0  0  0  0
  -26.5825   -1.0386   31.2231 C   0  0  0  0  0  0  0  0  0  0  0  0
  -24.3810   -1.1082   30.0855 C   0  0  0  0  0  0  0  0  0  0  0  0
  -23.7590   -1.1322   30.8961 C   0  0  0  0  0  0  0  0  0  0  0  0
  -22.2395   -1.0663   30.9853 C   0  0  0  0  0  0  0  0  0  0  0  0
  -21.6850   -0.8653   29.7652 C   0  0  0  0  0  0  0  0  0  0  0  0
  -22.4213   -0.7284   28.5819 C   0  0  0  0  0  0  0  0  0  0  0  0
  -23.8520   -0.8586   28.7157 C   0  0  0  0  0  0  0  0  0  0  0  0
  -30.0827   -0.6759   29.8751 C   0  0  0  0  0  0  0  0  0  0  0  0
  -30.5102   -0.1729   28.9395 O   0  0  0  0  0  0  0  0  0  0  0  0
  -30.7425   -0.7800   31.0565 N   0  0  0  0  0  0  0  0  0  0  0  0
  -31.7402   -0.9035   31.2963 C   0  0  0  0  0  0  0  0  0  0  0  0
  -32.7535   -0.8695   30.8509 C   0  0  0  0  0  0  0  0  0  0  0  0
  -34.1455   -1.0734   31.3129 C   0  0  0  0  0  0  0  0  0  0  0  0
  -35.2761   -0.9687   30.5430 C   0  0  0  0  0  0  0  0  0  0  0  0
  -35.1256   -0.7330   29.1910 C   0  0  0  0  0  0  0  0  0  0  0  0
  -33.8739   -0.5645   28.6084 C   0  0  0  0  0  0  0  0  0  0  0  0
  -32.8483   -0.6133   29.2956 C   0  0  0  0  0  0  0  0  0  0  0  0
  4  7  1  0
  2 13  1  0
 13 14  2  0
 13 15  1  0
 15 16  1  0
 16 17  1  0
 17 18  2  0
 18 19  1  0
 19 20  2  0
 20 21  1  0
 21 22  2  0
 22 17  1  0
  1  2  2  0
  2  5  1  0
  5  6  2  0
  6  4  1  0
  4  3  2  0
  3  1  1  0
  7  8  2  0
  8  9  1  0
  9 10  2  0
 10 11  1  0
 11 12  2  0
 12  7  1  0
M  END

$$$$
