No_2709-gen_results/8p0m/2024-11-27-11-27-31/
     RDKit          3D

  5  4  0  0  0  0  0  0  0  0999 V2000
  -28.1493   -0.8198   28.9079 Cl  0  0  0  0  0  0  0  0  0  0  0  0
  -27.8339    0.4961   29.0598 C   0  0  0  0  0  0  0  0  0  0  0  0
  -27.7903    1.1418   28.0451 F   0  0  0  0  0  0  0  0  0  0  0  0
  -28.6638    1.1075   29.9731 F   0  0  0  0  0  0  0  0  0  0  0  0
  -26.5803    0.5737   29.6399 F   0  0  0  0  0  0  0  0  0  0  0  0
  1  2  1  0
  2  3  1  0
  2  4  1  0
  2  5  1  0
M  END

$$$$
