No_2553-gen_results/8p0m/2024-11-27-11-27-31/
     RDKit          3D

 13 14  0  0  0  0  0  0  0  0999 V2000
  -28.0162   -0.8135   28.8779 C   0  0  0  0  0  0  0  0  0  0  0  0
  -27.0636   -0.1189   28.6079 C   0  0  0  0  0  0  0  0  0  0  0  0
  -25.7923   -0.4302   29.0761 C   0  0  0  0  0  0  0  0  0  0  0  0
  -25.5314   -1.5875   29.6105 C   0  0  0  0  0  0  0  0  0  0  0  0
  -26.6366   -2.4336   29.9654 C   0  0  0  0  0  0  0  0  0  0  0  0
  -27.8411   -2.0285   29.6196 C   0  0  0  0  0  0  0  0  0  0  0  0
  -27.1778    1.2349   27.9365 C   0  0  0  0  0  0  0  0  0  0  0  0
  -26.7880    2.3112   28.1933 C   0  0  0  0  0  0  0  0  0  0  0  0
  -27.8260    1.0564   26.5798 C   0  0  0  0  0  0  0  0  0  0  0  0
  -26.8719    3.5254   27.4037 C   0  0  0  0  0  0  0  0  0  0  0  0
  -27.9846    2.1732   25.7345 C   0  0  0  0  0  0  0  0  0  0  0  0
  -27.5024    3.4166   26.1829 C   0  0  0  0  0  0  0  0  0  0  0  0
  -29.1619   -3.0314   30.1268 Cl  0  0  0  0  0  0  0  0  0  0  0  0
  2  7  1  0
  6 13  1  0
  1  2  2  0
  2  3  1  0
  3  4  2  0
  4  5  1  0
  5  6  2  0
  6  1  1  0
  7  8  2  0
  8 10  1  0
 10 12  2  0
 12 11  1  0
 11  9  2  0
  9  7  1  0
M  END

$$$$
