No_2582-gen_results/8p0m/2024-11-27-11-27-31/
     RDKit          3D

 27 29  0  0  0  0  0  0  0  0999 V2000
  -28.0162   -0.8135   28.8779 C   0  0  0  0  0  0  0  0  0  0  0  0
  -27.0636   -0.1190   28.6079 C   0  0  0  0  0  0  0  0  0  0  0  0
  -25.7647   -0.3897   29.0360 C   0  0  0  0  0  0  0  0  0  0  0  0
  -24.5516    0.4058   28.7646 C   0  0  0  0  0  0  0  0  0  0  0  0
  -24.6957    1.4480   27.7988 C   0  0  0  0  0  0  0  0  0  0  0  0
  -26.0010    1.6784   27.2965 C   0  0  0  0  0  0  0  0  0  0  0  0
  -27.0736    0.9682   27.6500 C   0  0  0  0  0  0  0  0  0  0  0  0
  -28.6531   -0.5728   30.0856 N   0  0  0  0  0  0  0  0  0  0  0  0
  -29.6922   -1.3205   30.6020 C   0  0  0  0  0  0  0  0  0  0  0  0
  -30.2113   -0.9471   31.8592 C   0  0  0  0  0  0  0  0  0  0  0  0
  -28.2180    0.4528   30.9945 C   0  0  0  0  0  0  0  0  0  0  0  0
  -28.7186    0.7763   32.1639 C   0  0  0  0  0  0  0  0  0  0  0  0
  -29.7469    0.0578   32.6459 C   0  0  0  0  0  0  0  0  0  0  0  0
  -23.5193    2.2122   27.4270 C   0  0  0  0  0  0  0  0  0  0  0  0
  -22.8591    2.0435   26.6874 F   0  0  0  0  0  0  0  0  0  0  0  0
  -24.1354    3.5676   27.1896 F   0  0  0  0  0  0  0  0  0  0  0  0
  -22.8187    2.5173   28.6387 F   0  0  0  0  0  0  0  0  0  0  0  0
  -28.3877    1.3254   27.0393 C   0  0  0  0  0  0  0  0  0  0  0  0
  -28.4097    1.8198   25.8197 C   0  0  0  0  0  0  0  0  0  0  0  0
  -29.6276    2.0972   25.1710 C   0  0  0  0  0  0  0  0  0  0  0  0
  -30.7969    1.7927   25.7634 C   0  0  0  0  0  0  0  0  0  0  0  0
  -30.7662    1.2339   27.0555 C   0  0  0  0  0  0  0  0  0  0  0  0
  -29.6108    0.9945   27.6935 C   0  0  0  0  0  0  0  0  0  0  0  0
  -25.4412   -1.4928   30.0376 C   0  0  0  0  0  0  0  0  0  0  0  0
  -25.9788   -1.6048   31.4181 Cl  0  0  0  0  0  0  0  0  0  0  0  0
  -24.7881   -2.6531   29.3924 C   0  0  0  0  0  0  0  0  0  0  0  0
  -23.4816   -2.6259   29.0224 C   0  0  0  0  0  0  0  0  0  0  0  0
  1  8  1  0
  8  9  1  0
  8 11  1  0
 10 13  1  0
 12 13  1  0
  5 14  1  0
 14 15  1  0
 14 16  1  0
 14 17  1  0
  7 18  1  0
  3 24  1  0
 24 25  1  0
 24 26  1  0
 26 27  2  0
  1  2  1  0
  9 10  1  0
 12 11  1  0
 18 19  2  0
 19 20  1  0
 20 21  2  0
 21 22  1  0
 22 23  2  0
 23 18  1  0
  2  3  2  0
  3  4  1  0
  4  5  2  0
  5  6  1  0
  6  7  2  0
  7  2  1  0
M  END

$$$$
