No_2697-gen_results/8p0m/2024-11-27-11-27-31/
     RDKit          3D

 31 35  0  0  0  0  0  0  0  0999 V2000
  -28.0162   -0.8135   28.8779 C   0  0  0  0  0  0  0  0  0  0  0  0
  -27.0636   -0.1190   28.6079 C   0  0  0  0  0  0  0  0  0  0  0  0
  -26.9716    0.7139   27.5060 C   0  0  0  0  0  0  0  0  0  0  0  0
  -25.8205    1.4909   27.1160 C   0  0  0  0  0  0  0  0  0  0  0  0
  -24.6562    1.4242   27.9180 C   0  0  0  0  0  0  0  0  0  0  0  0
  -23.4598    2.1165   27.6160 C   0  0  0  0  0  0  0  0  0  0  0  0
  -23.4728    2.6642   26.2846 C   0  0  0  0  0  0  0  0  0  0  0  0
  -27.9928   -1.6167   30.1024 C   0  0  0  0  0  0  0  0  0  0  0  0
  -26.7739   -1.7832   30.7816 C   0  0  0  0  0  0  0  0  0  0  0  0
  -25.6334   -1.1481   30.3805 C   0  0  0  0  0  0  0  0  0  0  0  0
  -25.7087   -0.3105   29.2748 C   0  0  0  0  0  0  0  0  0  0  0  0
  -24.6067    0.4192   29.0605 C   0  0  0  0  0  0  0  0  0  0  0  0
  -28.1076    0.8301   26.5959 C   0  0  0  0  0  0  0  0  0  0  0  0
  -25.7608    2.2597   26.0106 C   0  0  0  0  0  0  0  0  0  0  0  0
  -24.5940    3.0782   25.6677 C   0  0  0  0  0  0  0  0  0  0  0  0
  -23.5050    0.3825   29.7020 O   0  0  0  0  0  0  0  0  0  0  0  0
  -29.0770    1.6667   26.8502 N   0  0  0  0  0  0  0  0  0  0  0  0
  -28.1667    0.1660   25.5356 O   0  0  0  0  0  0  0  0  0  0  0  0
  -30.2942    1.7906   26.0712 C   0  0  0  0  0  0  0  0  0  0  0  0
  -29.2129   -2.4107   30.4889 C   0  0  0  0  0  0  0  0  0  0  0  0
  -30.1872   -1.9436   30.7393 O   0  0  0  0  0  0  0  0  0  0  0  0
  -29.1038   -3.8200   30.2711 N   0  0  0  0  0  0  0  0  0  0  0  0
  -30.2104   -4.7099   30.5088 C   0  0  0  0  0  0  0  0  0  0  0  0
  -27.8405   -4.4982   30.0020 C   0  0  0  0  0  0  0  0  0  0  0  0
  -30.3660   -5.3641   31.4302 C   0  0  0  0  0  0  0  0  0  0  0  0
  -29.2376   -6.1920   31.7579 C   0  0  0  0  0  0  0  0  0  0  0  0
  -27.9379   -5.5544   31.2759 C   0  0  0  0  0  0  0  0  0  0  0  0
  -29.1113    2.5750   28.0829 C   0  0  0  0  0  0  0  0  0  0  0  0
  -29.1354    3.9365   27.8237 C   0  0  0  0  0  0  0  0  0  0  0  0
  -30.3231    4.2838   27.1724 C   0  0  0  0  0  0  0  0  0  0  0  0
  -30.5214    3.3827   25.8788 C   0  0  0  0  0  0  0  0  0  0  0  0
  2  3  1  0
  3  4  1  0
  5 12  1  0
 11 12  1  0
  3 13  1  0
 12 16  2  0
 13 17  1  0
 13 18  2  0
 17 19  1  0
  8 20  1  0
 20 21  2  0
 20 22  1  0
 22 23  1  0
 22 24  1  0
 25 26  1  0
 17 28  1  0
 29 30  1  0
 19 31  1  0
 30 31  1  0
 23 25  1  0
 26 27  1  0
 27 24  1  0
 29 28  1  0
  1  2  2  0
  2 11  1  0
 11 10  2  0
 10  9  1  0
  9  8  2  0
  8  1  1  0
  4  5  2  0
  5  6  1  0
  6  7  2  0
  7 15  1  0
 15 14  2  0
 14  4  1  0
M  END

$$$$
