No_2688-gen_results/8p0m/2024-11-27-11-27-31/
     RDKit          3D

 12 12  0  0  0  0  0  0  0  0999 V2000
  -28.0162   -0.8135   28.8779 C   0  0  0  0  0  0  0  0  0  0  0  0
  -27.0636   -0.1189   28.6079 C   0  0  0  0  0  0  0  0  0  0  0  0
  -27.0010    0.6913   27.4910 C   0  0  0  0  0  0  0  0  0  0  0  0
  -25.8548    1.4825   27.0830 C   0  0  0  0  0  0  0  0  0  0  0  0
  -24.6901    1.4526   27.8807 C   0  0  0  0  0  0  0  0  0  0  0  0
  -24.7379    0.6010   29.0416 C   0  0  0  0  0  0  0  0  0  0  0  0
  -25.8234   -0.1688   29.3887 C   0  0  0  0  0  0  0  0  0  0  0  0
  -27.9394   -1.7777   29.8082 O   0  0  0  0  0  0  0  0  0  0  0  0
  -29.5864   -0.1197   28.7509 Cl  0  0  0  0  0  0  0  0  0  0  0  0
  -23.5075    2.1914   27.5705 C   0  0  0  0  0  0  0  0  0  0  0  0
  -23.3302    2.7820   26.5161 O   0  0  0  0  0  0  0  0  0  0  0  0
  -22.3922    1.9474   28.3161 O   0  0  0  0  0  0  0  0  0  0  0  0
  1  2  1  0
  1  8  2  0
  1  9  1  0
  5 10  1  0
 10 11  2  0
 10 12  1  0
  2  3  2  0
  3  4  1  0
  4  5  2  0
  5  6  1  0
  6  7  2  0
  7  2  1  0
M  END

$$$$
