No_2421-gen_results/8p0m/2024-11-27-11-27-31/
     RDKit          3D

 13 14  0  0  0  0  0  0  0  0999 V2000
  -28.0162   -0.8135   28.8779 C   0  0  0  0  0  0  0  0  0  0  0  0
  -28.4690   -0.7850   29.8287 C   0  0  0  0  0  0  0  0  0  0  0  0
  -26.5455   -0.8762   28.8500 C   0  0  0  0  0  0  0  0  0  0  0  0
  -25.8041   -1.0324   30.0571 C   0  0  0  0  0  0  0  0  0  0  0  0
  -27.9437   -0.9869   31.2075 C   0  0  0  0  0  0  0  0  0  0  0  0
  -26.5825   -1.0386   31.2231 C   0  0  0  0  0  0  0  0  0  0  0  0
  -30.0606   -0.7371   29.9024 C   0  0  0  0  0  0  0  0  0  0  0  0
  -30.6316    0.2763   30.4584 N   0  0  0  0  0  0  0  0  0  0  0  0
  -31.2535    1.0767   30.1987 C   0  0  0  0  0  0  0  0  0  0  0  0
  -31.7202    1.1850   28.8378 C   0  0  0  0  0  0  0  0  0  0  0  0
  -31.5829   -0.0103   28.1600 C   0  0  0  0  0  0  0  0  0  0  0  0
  -30.8249   -1.9912   29.9270 C   0  0  0  0  0  0  0  0  0  0  0  0
  -31.5054   -1.3615   28.5313 C   0  0  0  0  0  0  0  0  0  0  0  0
  2  7  1  0
  7  8  1  0
  8  9  1  0
  9 10  2  0
 10 11  1  0
  7 12  1  0
 11 13  2  0
 12 13  1  0
  1  2  2  0
  2  5  1  0
  5  6  2  0
  6  4  1  0
  4  3  2  0
  3  1  1  0
M  END

$$$$
