No_2802-gen_results/8p0m/2024-11-27-11-27-31/
     RDKit          3D

 24 26  0  0  0  0  0  0  0  0999 V2000
  -28.0162   -0.8135   28.8779 C   0  0  0  0  0  0  0  0  0  0  0  0
  -28.4690   -0.7850   29.8287 C   0  0  0  0  0  0  0  0  0  0  0  0
  -28.1816    0.4277   28.1134 C   0  0  0  0  0  0  0  0  0  0  0  0
  -28.9841    1.4155   28.5154 C   0  0  0  0  0  0  0  0  0  0  0  0
  -28.3375   -2.0481   30.7873 C   0  0  0  0  0  0  0  0  0  0  0  0
  -29.5615    1.2930   29.7416 C   0  0  0  0  0  0  0  0  0  0  0  0
  -29.3196    0.1647   30.4451 C   0  0  0  0  0  0  0  0  0  0  0  0
  -27.3497   -2.0131   31.3316 F   0  0  0  0  0  0  0  0  0  0  0  0
  -29.3731   -2.1624   31.6675 F   0  0  0  0  0  0  0  0  0  0  0  0
  -28.3092   -3.1781   29.9787 F   0  0  0  0  0  0  0  0  0  0  0  0
  -27.4345    0.4904   26.7373 C   0  0  0  0  0  0  0  0  0  0  0  0
  -26.0163    0.5292   26.7289 C   0  0  0  0  0  0  0  0  0  0  0  0
  -25.2980    1.1533   25.7562 C   0  0  0  0  0  0  0  0  0  0  0  0
  -28.0784    0.5013   25.5510 C   0  0  0  0  0  0  0  0  0  0  0  0
  -29.4943    0.3800   25.4715 C   0  0  0  0  0  0  0  0  0  0  0  0
  -23.9120    1.2365   25.8395 C   0  0  0  0  0  0  0  0  0  0  0  0
  -23.3983    1.5887   27.0875 C   0  0  0  0  0  0  0  0  0  0  0  0
  -24.1096    1.0566   28.2287 C   0  0  0  0  0  0  0  0  0  0  0  0
  -25.3778    0.6433   28.1165 C   0  0  0  0  0  0  0  0  0  0  0  0
  -30.0114    0.0786   24.2428 C   0  0  0  0  0  0  0  0  0  0  0  0
  -31.3852   -0.2335   24.1664 C   0  0  0  0  0  0  0  0  0  0  0  0
  -32.1853   -0.3621   25.2786 C   0  0  0  0  0  0  0  0  0  0  0  0
  -31.6016   -0.0924   26.5372 C   0  0  0  0  0  0  0  0  0  0  0  0
  -30.2483    0.2073   26.6673 C   0  0  0  0  0  0  0  0  0  0  0  0
  2  5  1  0
  5  8  1  0
  5  9  1  0
  5 10  1  0
  3 11  1  0
 11 12  1  0
 11 14  1  0
 14 15  1  0
 15 20  2  0
 20 21  1  0
 21 22  2  0
 22 23  1  0
 23 24  2  0
 24 15  1  0
 12 13  2  0
 13 16  1  0
 16 17  2  0
 17 18  1  0
 18 19  2  0
 19 12  1  0
  1  2  2  0
  2  7  1  0
  7  6  2  0
  6  4  1  0
  4  3  2  0
  3  1  1  0
M  END

$$$$
