No_2386-gen_results/8p0m/2024-11-27-11-27-31/
     RDKit          3D

 13 14  0  0  0  0  0  0  0  0999 V2000
  -28.1229   -1.3353   28.4874 O   0  0  0  0  0  0  0  0  0  0  0  0
  -27.0637   -0.8242   28.8687 C   0  0  0  0  0  0  0  0  0  0  0  0
  -26.4017   -0.0623   28.6224 C   0  0  0  0  0  0  0  0  0  0  0  0
  -26.3805   -1.7991   29.9619 N   0  0  0  0  0  0  0  0  0  0  0  0
  -25.0334    0.3743   29.0484 C   0  0  0  0  0  0  0  0  0  0  0  0
  -24.5462   -0.4703   30.1069 C   0  0  0  0  0  0  0  0  0  0  0  0
  -25.2361   -1.5529   30.4712 C   0  0  0  0  0  0  0  0  0  0  0  0
  -26.8296    0.9867   27.5279 C   0  0  0  0  0  0  0  0  0  0  0  0
  -27.2144    1.9911   27.7234 C   0  0  0  0  0  0  0  0  0  0  0  0
  -26.7001    0.3815   26.1541 C   0  0  0  0  0  0  0  0  0  0  0  0
  -27.2403    0.9786   25.0564 C   0  0  0  0  0  0  0  0  0  0  0  0
  -27.7228    2.8747   26.5909 C   0  0  0  0  0  0  0  0  0  0  0  0
  -27.7012    2.3350   25.2621 C   0  0  0  0  0  0  0  0  0  0  0  0
  1  2  2  0
  2  3  1  0
  2  4  1  0
  3  5  1  0
  6  7  1  0
  3  8  1  0
  5  6  1  0
  7  4  1  0
  8  9  2  0
  9 12  1  0
 12 13  2  0
 13 11  1  0
 11 10  2  0
 10  8  1  0
M  END

$$$$
