No_2204-gen_results/8p0m/2024-11-27-11-27-31/
     RDKit          3D

 25 27  0  0  0  0  0  0  0  0999 V2000
  -28.0162   -0.8135   28.8779 C   0  0  0  0  0  0  0  0  0  0  0  0
  -28.4690   -0.7850   29.8287 C   0  0  0  0  0  0  0  0  0  0  0  0
  -26.5042   -0.7777   28.8766 C   0  0  0  0  0  0  0  0  0  0  0  0
  -25.6540   -0.6597   27.7191 C   0  0  0  0  0  0  0  0  0  0  0  0
  -28.1834   -0.8426   30.8354 C   0  0  0  0  0  0  0  0  0  0  0  0
  -26.7573   -0.8210   31.2264 C   0  0  0  0  0  0  0  0  0  0  0  0
  -25.8874   -0.7938   30.1755 C   0  0  0  0  0  0  0  0  0  0  0  0
  -25.1042    0.6500   27.4414 C   0  0  0  0  0  0  0  0  0  0  0  0
  -23.8316    0.8355   27.8759 C   0  0  0  0  0  0  0  0  0  0  0  0
  -23.1551    1.6164   27.8654 C   0  0  0  0  0  0  0  0  0  0  0  0
  -21.7107    1.7227   28.4487 C   0  0  0  0  0  0  0  0  0  0  0  0
  -21.3048    0.4814   28.9505 C   0  0  0  0  0  0  0  0  0  0  0  0
  -23.1010   -0.3924   28.5700 C   0  0  0  0  0  0  0  0  0  0  0  0
  -21.9512   -0.4751   29.0337 C   0  0  0  0  0  0  0  0  0  0  0  0
  -25.1788    0.9264   25.9216 C   0  0  0  0  0  0  0  0  0  0  0  0
  -25.9785    1.8281   28.1058 C   0  0  0  0  0  0  0  0  0  0  0  0
  -25.5376    2.7075   28.6805 C   0  0  0  0  0  0  0  0  0  0  0  0
  -26.4408    3.7524   29.2866 C   0  0  0  0  0  0  0  0  0  0  0  0
  -27.7695    3.6344   29.0714 C   0  0  0  0  0  0  0  0  0  0  0  0
  -28.2630    2.6481   28.2839 C   0  0  0  0  0  0  0  0  0  0  0  0
  -27.3840    1.7306   27.7848 C   0  0  0  0  0  0  0  0  0  0  0  0
  -30.1555   -0.7501   29.5602 C   0  0  0  0  0  0  0  0  0  0  0  0
  -30.8061   -1.6886   29.5860 O   0  0  0  0  0  0  0  0  0  0  0  0
  -30.7031    0.4524   29.3679 O   0  0  0  0  0  0  0  0  0  0  0  0
  -25.4120   -1.6726   27.1460 O   0  0  0  0  0  0  0  0  0  0  0  0
  3  4  1  0
  4  8  1  0
  8  9  1  0
  8 15  1  0
  8 16  1  0
  2 22  1  0
 22 23  2  0
 22 24  1  0
  4 25  2  0
  1  2  2  0
  2  5  1  0
  5  6  2  0
  6  7  1  0
  7  3  2  0
  3  1  1  0
  9 10  2  0
 10 11  1  0
 11 12  2  0
 12 14  1  0
 14 13  2  0
 13  9  1  0
 16 17  2  0
 17 18  1  0
 18 19  2  0
 19 20  1  0
 20 21  2  0
 21 16  1  0
M  END

$$$$
