No_2830-gen_results/8p0m/2024-11-27-11-27-31/
     RDKit          3D

 24 27  0  0  0  0  0  0  0  0999 V2000
  -28.0162   -0.8135   28.8779 C   0  0  0  0  0  0  0  0  0  0  0  0
  -27.0636   -0.1189   28.6079 C   0  0  0  0  0  0  0  0  0  0  0  0
  -25.7923   -0.4302   29.0761 C   0  0  0  0  0  0  0  0  0  0  0  0
  -25.5756   -1.5654   29.9363 C   0  0  0  0  0  0  0  0  0  0  0  0
  -26.7354   -2.3004   30.2173 C   0  0  0  0  0  0  0  0  0  0  0  0
  -27.9184   -1.9537   29.7629 C   0  0  0  0  0  0  0  0  0  0  0  0
  -29.1546   -2.6058   30.1655 C   0  0  0  0  0  0  0  0  0  0  0  0
  -29.5809   -2.4264   31.4091 N   0  0  0  0  0  0  0  0  0  0  0  0
  -29.4822   -1.3722   31.9843 C   0  0  0  0  0  0  0  0  0  0  0  0
  -29.6081   -0.8216   32.9056 C   0  0  0  0  0  0  0  0  0  0  0  0
  -29.4002    0.5614   33.3488 C   0  0  0  0  0  0  0  0  0  0  0  0
  -28.8108    1.3776   32.3712 C   0  0  0  0  0  0  0  0  0  0  0  0
  -28.4937    0.8338   31.2028 C   0  0  0  0  0  0  0  0  0  0  0  0
  -28.7251   -0.4702   30.9722 C   0  0  0  0  0  0  0  0  0  0  0  0
  -28.7223   -0.7442   29.6953 N   0  0  0  0  0  0  0  0  0  0  0  0
  -30.1178   -0.8674   29.1514 C   0  0  0  0  0  0  0  0  0  0  0  0
  -28.6958   -4.0437   30.1879 F   0  0  0  0  0  0  0  0  0  0  0  0
  -30.2372   -3.5114   32.2523 C   0  0  0  0  0  0  0  0  0  0  0  0
  -30.4568    0.3415   28.4577 C   0  0  0  0  0  0  0  0  0  0  0  0
  -31.5652    0.7064   28.1781 C   0  0  0  0  0  0  0  0  0  0  0  0
  -31.8719    1.7027   27.2424 C   0  0  0  0  0  0  0  0  0  0  0  0
  -30.8065    2.4570   26.6531 C   0  0  0  0  0  0  0  0  0  0  0  0
  -29.5404    2.0635   26.9488 C   0  0  0  0  0  0  0  0  0  0  0  0
  -29.3157    0.9961   27.8114 C   0  0  0  0  0  0  0  0  0  0  0  0
  6  7  1  0
  7  8  1  0
  8  9  1  0
  1 15  1  0
 14 15  1  0
 15 16  1  0
  7 17  1  0
  8 18  1  0
 16 19  1  0
  1  2  2  0
  2  3  1  0
  3  4  2  0
  4  5  1  0
  5  6  2  0
  6  1  1  0
  9 10  2  0
 10 11  1  0
 11 12  2  0
 12 13  1  0
 13 14  2  0
 14  9  1  0
 19 20  2  0
 20 21  1  0
 21 22  2  0
 22 23  1  0
 23 24  2  0
 24 19  1  0
M  END

$$$$
