No_2122-gen_results/8p0m/2024-11-27-11-27-31/
     RDKit          3D

 34 36  0  0  0  0  0  0  0  0999 V2000
  -28.0162   -0.8135   28.8779 C   0  0  0  0  0  0  0  0  0  0  0  0
  -28.4690   -0.7850   29.8287 C   0  0  0  0  0  0  0  0  0  0  0  0
  -27.0871    0.2903   28.6377 C   0  0  0  0  0  0  0  0  0  0  0  0
  -26.8317    1.2487   29.5869 C   0  0  0  0  0  0  0  0  0  0  0  0
  -28.3914    0.0801   31.0065 C   0  0  0  0  0  0  0  0  0  0  0  0
  -27.4940    1.1521   30.7841 C   0  0  0  0  0  0  0  0  0  0  0  0
  -26.3109    0.3918   27.3640 C   0  0  0  0  0  0  0  0  0  0  0  0
  -25.7791    1.5134   27.3754 F   0  0  0  0  0  0  0  0  0  0  0  0
  -27.1694    0.3670   26.3291 F   0  0  0  0  0  0  0  0  0  0  0  0
  -25.3926   -0.5749   27.2606 F   0  0  0  0  0  0  0  0  0  0  0  0
  -29.4524   -2.0248   30.2359 C   0  0  0  0  0  0  0  0  0  0  0  0
  -30.5249   -1.8979   29.8775 O   0  0  0  0  0  0  0  0  0  0  0  0
  -28.9908   -3.0602   30.8681 O   0  0  0  0  0  0  0  0  0  0  0  0
  -27.2646    2.1597   31.8550 C   0  0  0  0  0  0  0  0  0  0  0  0
  -26.9004    1.8766   32.9367 C   0  0  0  0  0  0  0  0  0  0  0  0
  -26.3555    0.8194   33.3864 C   0  0  0  0  0  0  0  0  0  0  0  0
  -25.6612   -0.0468   32.5404 C   0  0  0  0  0  0  0  0  0  0  0  0
  -24.2042   -0.0731   32.4869 C   0  0  0  0  0  0  0  0  0  0  0  0
  -26.2463   -1.2287   31.9970 C   0  0  0  0  0  0  0  0  0  0  0  0
  -23.4127   -0.8941   31.7389 C   0  0  0  0  0  0  0  0  0  0  0  0
  -25.4061   -2.1351   31.2009 C   0  0  0  0  0  0  0  0  0  0  0  0
  -24.0661   -1.9146   31.0801 C   0  0  0  0  0  0  0  0  0  0  0  0
  -27.8026    3.4687   31.3419 C   0  0  0  0  0  0  0  0  0  0  0  0
  -27.8414    4.3301   32.1393 N   0  0  0  0  0  0  0  0  0  0  0  0
  -28.3172    3.5865   30.1951 O   0  0  0  0  0  0  0  0  0  0  0  0
  -28.1784    5.7221   31.8413 C   0  0  0  0  0  0  0  0  0  0  0  0
  -27.6957    6.5847   31.6701 C   0  0  0  0  0  0  0  0  0  0  0  0
  -28.2045    7.9359   31.2833 C   0  0  0  0  0  0  0  0  0  0  0  0
  -29.5670    7.9893   31.1047 C   0  0  0  0  0  0  0  0  0  0  0  0
  -30.2902    6.8384   31.2727 C   0  0  0  0  0  0  0  0  0  0  0  0
  -29.6943    5.6551   31.6283 C   0  0  0  0  0  0  0  0  0  0  0  0
  -31.7629    6.8395   31.0928 C   0  0  0  0  0  0  0  0  0  0  0  0
  -32.3928    7.6174   31.7163 F   0  0  0  0  0  0  0  0  0  0  0  0
  -32.2080    5.9877   30.5037 F   0  0  0  0  0  0  0  0  0  0  0  0
  3  7  1  0
  7  8  1  0
  7  9  1  0
  7 10  1  0
  2 11  1  0
 11 12  2  0
 11 13  1  0
  6 14  1  0
 14 15  1  0
 15 16  2  3
 16 17  1  0
 14 23  1  0
 23 24  1  0
 23 25  2  0
 24 26  1  0
 30 32  1  0
 32 33  1  0
 32 34  1  0
 26 27  2  0
 27 28  1  0
 28 29  2  0
 29 30  1  0
 30 31  2  0
 31 26  1  0
 17 18  2  0
 18 20  1  0
 20 22  2  0
 22 21  1  0
 21 19  2  0
 19 17  1  0
  1  2  2  0
  2  5  1  0
  5  6  2  0
  6  4  1  0
  4  3  2  0
  3  1  1  0
M  END

$$$$
