No_2842-gen_results/8p0m/2024-11-27-11-27-31/
     RDKit          3D

 23 26  0  0  0  0  0  0  0  0999 V2000
  -28.0162   -0.8135   28.8779 C   0  0  0  0  0  0  0  0  0  0  0  0
  -27.0636   -0.1190   28.6079 C   0  0  0  0  0  0  0  0  0  0  0  0
  -26.9716    0.7139   27.5060 C   0  0  0  0  0  0  0  0  0  0  0  0
  -28.1053    0.7744   26.6421 C   0  0  0  0  0  0  0  0  0  0  0  0
  -29.2041    0.1179   27.0477 C   0  0  0  0  0  0  0  0  0  0  0  0
  -29.2127   -0.6088   28.1281 C   0  0  0  0  0  0  0  0  0  0  0  0
  -25.7106    1.4518   27.1380 C   0  0  0  0  0  0  0  0  0  0  0  0
  -24.6052    0.9253   27.6902 C   0  0  0  0  0  0  0  0  0  0  0  0
  -23.3087    1.6018   27.4923 C   0  0  0  0  0  0  0  0  0  0  0  0
  -23.2169    2.4959   26.4391 C   0  0  0  0  0  0  0  0  0  0  0  0
  -25.5553    2.4208   26.1832 C   0  0  0  0  0  0  0  0  0  0  0  0
  -24.3322    3.0724   25.9239 C   0  0  0  0  0  0  0  0  0  0  0  0
  -22.0936    1.0267   28.1293 C   0  0  0  0  0  0  0  0  0  0  0  0
  -22.2052   -0.0627   28.9274 N   0  0  0  0  0  0  0  0  0  0  0  0
  -20.9621    1.5017   27.9089 O   0  0  0  0  0  0  0  0  0  0  0  0
  -30.3312    0.3049   26.0392 C   0  0  0  0  0  0  0  0  0  0  0  0
  -30.2167    0.3092   24.8603 O   0  0  0  0  0  0  0  0  0  0  0  0
  -31.6028    0.1817   26.5843 N   0  0  0  0  0  0  0  0  0  0  0  0
  -31.9371    0.1198   27.9657 C   0  0  0  0  0  0  0  0  0  0  0  0
  -32.7129    0.3341   25.6187 C   0  0  0  0  0  0  0  0  0  0  0  0
  -23.3213   -0.6956   29.4197 C   0  0  0  0  0  0  0  0  0  0  0  0
  -24.5161   -0.2961   28.6716 C   0  0  0  0  0  0  0  0  0  0  0  0
  -25.7106   -0.5816   29.2104 C   0  0  0  0  0  0  0  0  0  0  0  0
  1  2  2  0
  2  3  1  0
  3  4  1  0
  4  5  1  0
  1  6  1  0
  5  6  2  0
  3  7  1  0
  7  8  2  0
  8  9  1  0
  9 10  2  0
  7 11  1  0
 10 12  1  0
 11 12  2  0
  9 13  1  0
 13 14  2  0
 13 15  1  0
  5 16  1  0
 16 17  2  0
 16 18  1  0
 18 19  1  0
 18 20  1  0
 14 21  1  0
  8 22  1  0
 21 22  1  0
  2 23  1  0
 22 23  1  0
M  END

$$$$
