No_2368-gen_results/8p0m/2024-11-27-11-27-31/
     RDKit          3D

 12 13  0  0  0  0  0  0  0  0999 V2000
  -28.0162   -0.8135   28.8779 C   0  0  0  0  0  0  0  0  0  0  0  0
  -28.4690   -0.7850   29.8287 C   0  0  0  0  0  0  0  0  0  0  0  0
  -27.0871    0.2903   28.6377 C   0  0  0  0  0  0  0  0  0  0  0  0
  -26.9102    0.8486   27.4199 C   0  0  0  0  0  0  0  0  0  0  0  0
  -27.8863   -0.5049   31.0945 C   0  0  0  0  0  0  0  0  0  0  0  0
  -26.8583    0.4896   31.0361 C   0  0  0  0  0  0  0  0  0  0  0  0
  -26.4721    0.9027   29.7780 C   0  0  0  0  0  0  0  0  0  0  0  0
  -27.1908    2.1653   27.0893 C   0  0  0  0  0  0  0  0  0  0  0  0
  -26.2865    0.0844   26.3564 C   0  0  0  0  0  0  0  0  0  0  0  0
  -26.1092    0.4781   25.0399 C   0  0  0  0  0  0  0  0  0  0  0  0
  -26.9629    2.6826   25.7595 C   0  0  0  0  0  0  0  0  0  0  0  0
  -26.3887    1.8533   24.7397 C   0  0  0  0  0  0  0  0  0  0  0  0
  3  4  1  0
  4  8  2  0
  8 11  1  0
 11 12  2  0
 12 10  1  0
 10  9  2  0
  9  4  1  0
  1  2  2  0
  2  5  1  0
  5  6  2  0
  6  7  1  0
  7  3  2  0
  3  1  1  0
M  END

$$$$
