No_2364-gen_results/8p0m/2024-11-27-11-27-31/
     RDKit          3D

  7  7  0  0  0  0  0  0  0  0999 V2000
  -28.0162   -0.8135   28.8779 C   0  0  0  0  0  0  0  0  0  0  0  0
  -27.0636   -0.1189   28.6079 C   0  0  0  0  0  0  0  0  0  0  0  0
  -25.8837   -0.5253   28.7834 F   0  0  0  0  0  0  0  0  0  0  0  0
  -27.0354    1.2934   29.2017 C   0  0  0  0  0  0  0  0  0  0  0  0
  -29.3374   -0.1781   29.0254 C   0  0  0  0  0  0  0  0  0  0  0  0
  -28.3198    2.0084   28.9656 C   0  0  0  0  0  0  0  0  0  0  0  0
  -29.4714    1.1571   29.1454 C   0  0  0  0  0  0  0  0  0  0  0  0
  2  3  1  0
  1  2  2  0
  2  4  1  0
  4  6  2  0
  6  7  1  0
  7  5  2  0
  5  1  1  0
M  END

$$$$
