No_24-gen_results/8p0m/2024-11-27-11-27-31/
     RDKit          3D

 25 28  0  0  0  0  0  0  0  0999 V2000
  -28.0162   -0.8135   28.8779 C   0  0  0  0  0  0  0  0  0  0  0  0
  -27.0636   -0.1189   28.6079 C   0  0  0  0  0  0  0  0  0  0  0  0
  -25.7647   -0.3897   29.0360 C   0  0  0  0  0  0  0  0  0  0  0  0
  -25.5296   -1.5302   29.9014 C   0  0  0  0  0  0  0  0  0  0  0  0
  -26.6888   -2.2893   30.1810 C   0  0  0  0  0  0  0  0  0  0  0  0
  -27.8727   -1.9508   29.7373 C   0  0  0  0  0  0  0  0  0  0  0  0
  -24.6993    0.3604   28.7753 F   0  0  0  0  0  0  0  0  0  0  0  0
  -29.0333   -2.8145   30.1506 C   0  0  0  0  0  0  0  0  0  0  0  0
  -30.2066   -2.2497   30.2766 N   0  0  0  0  0  0  0  0  0  0  0  0
  -28.8362   -3.9256   30.7097 O   0  0  0  0  0  0  0  0  0  0  0  0
  -31.3776   -2.9970   30.6772 C   0  0  0  0  0  0  0  0  0  0  0  0
  -32.3633   -2.5414   30.8459 C   0  0  0  0  0  0  0  0  0  0  0  0
  -32.4468   -1.1490   30.9733 C   0  0  0  0  0  0  0  0  0  0  0  0
  -31.3904   -0.3017   30.6112 C   0  0  0  0  0  0  0  0  0  0  0  0
  -30.2605   -0.8415   30.3566 C   0  0  0  0  0  0  0  0  0  0  0  0
  -27.1600    1.1138   27.6897 C   0  0  0  0  0  0  0  0  0  0  0  0
  -27.5614    2.2098   28.2178 C   0  0  0  0  0  0  0  0  0  0  0  0
  -26.9927    0.8564   26.3241 C   0  0  0  0  0  0  0  0  0  0  0  0
  -27.7979    3.3510   27.3503 C   0  0  0  0  0  0  0  0  0  0  0  0
  -26.5695   -0.4079   25.7974 C   0  0  0  0  0  0  0  0  0  0  0  0
  -27.5102    3.2067   25.9780 C   0  0  0  0  0  0  0  0  0  0  0  0
  -27.0875    1.9703   25.4534 C   0  0  0  0  0  0  0  0  0  0  0  0
  -26.0729   -0.3463   24.5730 C   0  0  0  0  0  0  0  0  0  0  0  0
  -26.2372    0.7209   23.7746 C   0  0  0  0  0  0  0  0  0  0  0  0
  -26.7552    1.8192   24.1608 C   0  0  0  0  0  0  0  0  0  0  0  0
  3  7  1  0
  6  8  1  0
  8  9  1  0
  8 10  2  0
  9 11  1  0
 12 13  1  0
  9 15  1  0
 14 15  1  0
  2 16  1  0
 11 12  1  0
 13 14  1  0
  1  2  2  0
  2  3  1  0
  3  4  2  0
  4  5  1  0
  5  6  2  0
  6  1  1  0
 18 20  2  0
 20 23  1  0
 23 24  2  0
 24 25  1  0
 25 22  2  0
 16 17  2  0
 17 19  1  0
 19 21  2  0
 21 22  1  0
 22 18  1  0
 18 16  1  0
M  END

$$$$
