No_2801-gen_results/8p0m/2024-11-27-11-27-31/
     RDKit          3D

 32 35  0  0  0  0  0  0  0  0999 V2000
  -28.0162   -0.8135   28.8779 C   0  0  0  0  0  0  0  0  0  0  0  0
  -27.0636   -0.1190   28.6079 C   0  0  0  0  0  0  0  0  0  0  0  0
  -26.9716    0.7139   27.5060 C   0  0  0  0  0  0  0  0  0  0  0  0
  -28.1053    0.7744   26.6421 C   0  0  0  0  0  0  0  0  0  0  0  0
  -29.2008    0.1044   27.0527 C   0  0  0  0  0  0  0  0  0  0  0  0
  -29.2096   -0.6029   28.1853 C   0  0  0  0  0  0  0  0  0  0  0  0
  -30.5651    0.2430   26.0493 Cl  0  0  0  0  0  0  0  0  0  0  0  0
  -25.7033   -0.2337   29.4132 C   0  0  0  0  0  0  0  0  0  0  0  0
  -24.5301   -0.2334   28.8122 C   0  0  0  0  0  0  0  0  0  0  0  0
  -23.3124   -0.3787   29.5408 C   0  0  0  0  0  0  0  0  0  0  0  0
  -23.3606   -0.7552   30.8234 C   0  0  0  0  0  0  0  0  0  0  0  0
  -24.5767   -0.8075   31.5281 C   0  0  0  0  0  0  0  0  0  0  0  0
  -25.7585   -0.5988   30.7922 C   0  0  0  0  0  0  0  0  0  0  0  0
  -22.0221   -0.2525   28.8629 C   0  0  0  0  0  0  0  0  0  0  0  0
  -21.7771    0.9218   28.2124 N   0  0  0  0  0  0  0  0  0  0  0  0
  -21.1493   -1.0823   28.9385 O   0  0  0  0  0  0  0  0  0  0  0  0
  -22.6102    2.0615   28.0104 C   0  0  0  0  0  0  0  0  0  0  0  0
  -22.9499    2.2545   26.5687 C   0  0  0  0  0  0  0  0  0  0  0  0
  -24.0394    3.0926   26.2972 C   0  0  0  0  0  0  0  0  0  0  0  0
  -24.5456    3.9503   27.3565 C   0  0  0  0  0  0  0  0  0  0  0  0
  -25.4895    4.9518   27.0415 C   0  0  0  0  0  0  0  0  0  0  0  0
  -25.6778    5.9426   27.9754 C   0  0  0  0  0  0  0  0  0  0  0  0
  -26.4020    6.2960   28.6149 C   0  0  0  0  0  0  0  0  0  0  0  0
  -27.6093    5.5391   28.8184 C   0  0  0  0  0  0  0  0  0  0  0  0
  -27.9283    4.6807   27.7808 C   0  0  0  0  0  0  0  0  0  0  0  0
  -26.6763    4.3497   26.6873 N   0  0  0  0  0  0  0  0  0  0  0  0
  -28.9904    3.9353   27.5853 N   0  0  0  0  0  0  0  0  0  0  0  0
  -29.8081    3.7130   28.5713 C   0  0  0  0  0  0  0  0  0  0  0  0
  -29.5517    3.8109   26.2375 C   0  0  0  0  0  0  0  0  0  0  0  0
  -31.1846    3.4798   28.3786 C   0  0  0  0  0  0  0  0  0  0  0  0
  -30.8913    3.6519   26.0548 C   0  0  0  0  0  0  0  0  0  0  0  0
  -31.6795    3.3700   27.1242 C   0  0  0  0  0  0  0  0  0  0  0  0
  5  7  1  0
  2  8  1  0
 10 14  1  0
 14 15  1  0
 14 16  2  0
 15 17  1  0
 17 18  1  0
 18 19  2  3
 19 20  1  0
 20 21  1  0
 25 27  1  0
 27 28  1  0
 27 29  1  0
 30 32  1  0
 31 32  1  0
 28 30  1  0
 31 29  1  0
  1  2  2  0
  2  3  1  0
  3  4  2  0
  4  5  1  0
  5  6  2  0
  6  1  1  0
  8  9  2  0
  9 10  1  0
 10 11  2  0
 11 12  1  0
 12 13  2  0
 13  8  1  0
 21 22  2  0
 22 23  1  0
 23 24  2  0
 24 25  1  0
 25 26  2  0
 26 21  1  0
M  END

$$$$
