No_2584-gen_results/8p0m/2024-11-27-11-27-31/
     RDKit          3D

 21 23  0  0  0  0  0  0  0  0999 V2000
  -28.0162   -0.8135   28.8779 C   0  0  0  0  0  0  0  0  0  0  0  0
  -27.0636   -0.1189   28.6079 C   0  0  0  0  0  0  0  0  0  0  0  0
  -25.7647   -0.3897   29.0360 C   0  0  0  0  0  0  0  0  0  0  0  0
  -24.5516    0.4058   28.7646 C   0  0  0  0  0  0  0  0  0  0  0  0
  -24.6957    1.4480   27.7988 C   0  0  0  0  0  0  0  0  0  0  0  0
  -26.0010    1.6784   27.2965 C   0  0  0  0  0  0  0  0  0  0  0  0
  -27.0736    0.9682   27.6500 C   0  0  0  0  0  0  0  0  0  0  0  0
  -28.6424   -0.4818   30.1960 C   0  0  0  0  0  0  0  0  0  0  0  0
  -28.2929    0.5574   30.7802 C   0  0  0  0  0  0  0  0  0  0  0  0
  -28.9636    0.9047   32.1205 C   0  0  0  0  0  0  0  0  0  0  0  0
  -23.5103    2.2027   27.4478 C   0  0  0  0  0  0  0  0  0  0  0  0
  -23.6286    3.7150   27.1555 Cl  0  0  0  0  0  0  0  0  0  0  0  0
  -22.2942    1.6625   27.4201 O   0  0  0  0  0  0  0  0  0  0  0  0
  -29.8655   -0.0128   32.6170 C   0  0  0  0  0  0  0  0  0  0  0  0
  -29.6201   -1.4171   30.8010 C   0  0  0  0  0  0  0  0  0  0  0  0
  -30.2015   -1.1582   31.9882 C   0  0  0  0  0  0  0  0  0  0  0  0
  -25.4076   -1.4606   30.0299 C   0  0  0  0  0  0  0  0  0  0  0  0
  -24.2509   -1.9456   30.1570 C   0  0  0  0  0  0  0  0  0  0  0  0
  -23.1328   -1.1749   29.7647 C   0  0  0  0  0  0  0  0  0  0  0  0
  -23.2233   -0.0953   28.9204 C   0  0  0  0  0  0  0  0  0  0  0  0
  -28.2673    1.2989   27.1975 F   0  0  0  0  0  0  0  0  0  0  0  0
  1  8  1  0
  5 11  1  0
 11 12  1  0
 11 13  2  0
  7 21  1  0
  1  2  1  0
  2  3  2  0
  4  5  2  0
  5  6  1  0
  6  7  2  0
  7  2  1  0
  3  4  1  0
  4 20  1  0
 20 19  2  0
 19 18  1  0
 18 17  2  0
 17  3  1  0
  8  9  2  0
  9 10  1  0
 10 14  2  0
 14 16  1  0
 16 15  2  0
 15  8  1  0
M  END

$$$$
