No_2383-gen_results/8p0m/2024-11-27-11-27-31/
     RDKit          3D

 25 28  0  0  0  0  0  0  0  0999 V2000
  -28.0162   -0.8135   28.8779 C   0  0  0  0  0  0  0  0  0  0  0  0
  -27.0636   -0.1190   28.6079 C   0  0  0  0  0  0  0  0  0  0  0  0
  -25.7923   -0.4302   29.0761 C   0  0  0  0  0  0  0  0  0  0  0  0
  -24.5456    0.3494   28.8225 C   0  0  0  0  0  0  0  0  0  0  0  0
  -24.6586    1.4196   27.8878 C   0  0  0  0  0  0  0  0  0  0  0  0
  -25.9471    1.6811   27.3792 C   0  0  0  0  0  0  0  0  0  0  0  0
  -27.0439    0.9739   27.6871 C   0  0  0  0  0  0  0  0  0  0  0  0
  -29.2364   -0.0611   29.2668 C   0  0  0  0  0  0  0  0  0  0  0  0
  -29.4997    0.9915   28.3427 C   0  0  0  0  0  0  0  0  0  0  0  0
  -28.3797    1.6784   27.7428 C   0  0  0  0  0  0  0  0  0  0  0  0
  -23.4303    2.0857   27.4977 C   0  0  0  0  0  0  0  0  0  0  0  0
  -23.4869    3.0477   26.6420 N   0  0  0  0  0  0  0  0  0  0  0  0
  -22.2200    1.7946   27.9861 N   0  0  0  0  0  0  0  0  0  0  0  0
  -30.8306    1.6223   28.2344 C   0  0  0  0  0  0  0  0  0  0  0  0
  -31.5658    1.3331   27.3006 C   0  0  0  0  0  0  0  0  0  0  0  0
  -31.2854    0.4399   26.3673 C   0  0  0  0  0  0  0  0  0  0  0  0
  -30.5176   -0.3372   26.2585 C   0  0  0  0  0  0  0  0  0  0  0  0
  -30.3158   -1.3172   25.0781 C   0  0  0  0  0  0  0  0  0  0  0  0
  -31.2877   -1.2011   24.1343 C   0  0  0  0  0  0  0  0  0  0  0  0
  -32.3466   -0.3963   24.1590 C   0  0  0  0  0  0  0  0  0  0  0  0
  -32.3837    0.4285   25.2279 C   0  0  0  0  0  0  0  0  0  0  0  0
  -32.7634    2.0378   27.3142 O   0  0  0  0  0  0  0  0  0  0  0  0
  -31.0244    2.4860   29.2467 O   0  0  0  0  0  0  0  0  0  0  0  0
  -21.9846    0.8292   28.8912 C   0  0  0  0  0  0  0  0  0  0  0  0
  -23.1483   -0.0415   29.2963 C   0  0  0  0  0  0  0  0  0  0  0  0
  9 14  1  0
 14 15  1  0
 15 16  1  0
 15 22  2  0
 14 23  1  0
 12 11  1  0
  2  3  1  0
  3  4  2  0
  5  6  2  0
  6  7  1  0
  1  2  2  0
  2  7  1  0
  7 10  2  0
 10  9  1  0
  9  8  2  0
  8  1  1  0
  4  5  1  0
  5 11  1  0
 11 13  2  0
 13 24  1  0
 24 25  2  0
 25  4  1  0
 16 17  2  0
 17 18  1  0
 18 19  2  0
 19 20  1  0
 20 21  2  0
 21 16  1  0
M  END

$$$$
