No_2163-gen_results/8p0m/2024-11-27-11-27-31/
     RDKit          3D

 35 37  0  0  0  0  0  0  0  0999 V2000
  -28.0162   -0.8135   28.8779 C   0  0  0  0  0  0  0  0  0  0  0  0
  -27.0636   -0.1190   28.6079 C   0  0  0  0  0  0  0  0  0  0  0  0
  -26.9716    0.7139   27.5060 C   0  0  0  0  0  0  0  0  0  0  0  0
  -28.1053    0.7744   26.6421 C   0  0  0  0  0  0  0  0  0  0  0  0
  -29.0421    0.3521   26.9673 C   0  0  0  0  0  0  0  0  0  0  0  0
  -29.1962   -0.5113   28.1033 C   0  0  0  0  0  0  0  0  0  0  0  0
  -30.3087    0.4385   26.1010 C   0  0  0  0  0  0  0  0  0  0  0  0
  -30.8141    1.4445   25.9573 N   0  0  0  0  0  0  0  0  0  0  0  0
  -30.8025   -0.6283   25.5572 O   0  0  0  0  0  0  0  0  0  0  0  0
  -30.4331    2.7569   26.6146 C   0  0  0  0  0  0  0  0  0  0  0  0
  -32.0102    1.6767   24.9992 C   0  0  0  0  0  0  0  0  0  0  0  0
  -27.9488   -1.6512   30.1374 C   0  0  0  0  0  0  0  0  0  0  0  0
  -28.8373   -1.8573   30.8506 N   0  0  0  0  0  0  0  0  0  0  0  0
  -26.8589   -2.3720   30.2808 O   0  0  0  0  0  0  0  0  0  0  0  0
  -28.8866   -2.8918   31.9135 C   0  0  0  0  0  0  0  0  0  0  0  0
  -25.6133    1.3000   27.1142 C   0  0  0  0  0  0  0  0  0  0  0  0
  -24.6229    0.8545   27.8795 C   0  0  0  0  0  0  0  0  0  0  0  0
  -23.4022    1.7246   27.9635 C   0  0  0  0  0  0  0  0  0  0  0  0
  -23.2174    2.5845   26.8598 C   0  0  0  0  0  0  0  0  0  0  0  0
  -24.2971    2.9251   26.0449 C   0  0  0  0  0  0  0  0  0  0  0  0
  -25.5117    2.3144   26.2076 C   0  0  0  0  0  0  0  0  0  0  0  0
  -22.0229    1.2254   28.8320 Cl  0  0  0  0  0  0  0  0  0  0  0  0
  -29.6228   -4.0610   31.3201 C   0  0  0  0  0  0  0  0  0  0  0  0
  -29.9502   -4.0583   30.0405 C   0  0  0  0  0  0  0  0  0  0  0  0
  -30.7639   -5.2990   29.6533 C   0  0  0  0  0  0  0  0  0  0  0  0
  -30.8303   -6.2507   30.2859 O   0  0  0  0  0  0  0  0  0  0  0  0
  -31.2326   -5.2617   28.4164 O   0  0  0  0  0  0  0  0  0  0  0  0
  -32.0428   -4.2224   27.9588 C   0  0  0  0  0  0  0  0  0  0  0  0
  -33.3724   -4.5448   27.7565 C   0  0  0  0  0  0  0  0  0  0  0  0
  -33.8558   -5.5058   27.7106 C   0  0  0  0  0  0  0  0  0  0  0  0
  -35.2814   -5.8573   27.4257 C   0  0  0  0  0  0  0  0  0  0  0  0
  -35.8536   -7.0883   27.3779 C   0  0  0  0  0  0  0  0  0  0  0  0
  -34.9812   -8.1849   27.5954 C   0  0  0  0  0  0  0  0  0  0  0  0
  -33.6331   -8.0440   27.8141 C   0  0  0  0  0  0  0  0  0  0  0  0
  -33.0670   -6.7226   27.8219 C   0  0  0  0  0  0  0  0  0  0  0  0
  5  7  1  0
  7  8  1  0
  7  9  2  0
  8 10  1  0
  8 11  1  0
  1 12  1  0
 12 13  1  0
 12 14  2  0
 13 15  1  0
  3 16  1  0
 18 22  1  0
 15 23  1  0
 23 24  1  0
 24 25  1  0
 25 26  2  0
 25 27  1  0
 27 28  1  0
 28 29  2  3
 29 30  1  0
  1  2  2  0
  2  3  1  0
  3  4  2  0
  4  5  1  0
  5  6  2  0
  6  1  1  0
 30 31  2  0
 31 32  1  0
 32 33  2  0
 33 34  1  0
 34 35  2  0
 35 30  1  0
 16 17  2  0
 17 18  1  0
 18 19  2  0
 19 20  1  0
 20 21  2  0
 21 16  1  0
M  END

$$$$
