No_2641-gen_results/8p0m/2024-11-27-11-27-31/
     RDKit          3D

 15 16  0  0  0  0  0  0  0  0999 V2000
  -28.0162   -0.8135   28.8779 C   0  0  0  0  0  0  0  0  0  0  0  0
  -27.0636   -0.1190   28.6079 C   0  0  0  0  0  0  0  0  0  0  0  0
  -26.9716    0.7139   27.5060 C   0  0  0  0  0  0  0  0  0  0  0  0
  -28.1053    0.7744   26.6421 C   0  0  0  0  0  0  0  0  0  0  0  0
  -29.2008    0.1044   27.0527 C   0  0  0  0  0  0  0  0  0  0  0  0
  -29.2096   -0.6029   28.1853 C   0  0  0  0  0  0  0  0  0  0  0  0
  -30.2994    0.2279   26.2571 O   0  0  0  0  0  0  0  0  0  0  0  0
  -25.7189   -0.2206   29.4011 C   0  0  0  0  0  0  0  0  0  0  0  0
  -24.5693    0.1274   28.9001 C   0  0  0  0  0  0  0  0  0  0  0  0
  -24.5868    1.0201   27.6932 C   0  0  0  0  0  0  0  0  0  0  0  0
  -25.6916    1.2348   26.9868 C   0  0  0  0  0  0  0  0  0  0  0  0
  -23.0411    1.7094   27.2613 Cl  0  0  0  0  0  0  0  0  0  0  0  0
  -23.2763    0.0916   29.6507 C   0  0  0  0  0  0  0  0  0  0  0  0
  -23.0937    0.7739   30.6924 C   0  0  0  0  0  0  0  0  0  0  0  0
  -22.3473   -0.8630   29.0973 C   0  0  0  0  0  0  0  0  0  0  0  0
  5  7  1  0
 10 12  1  0
  9 13  1  0
 13 14  1  0
 13 15  1  0
  1  2  2  0
  3  4  2  0
  4  5  1  0
  5  6  2  0
  6  1  1  0
  2  3  1  0
  3 11  1  0
 11 10  2  0
 10  9  1  0
  9  8  2  0
  8  2  1  0
M  END

$$$$
