No_209-gen_results/8p0m/2024-11-27-11-27-31/
     RDKit          3D

 17 18  0  0  0  0  0  0  0  0999 V2000
  -28.0162   -0.8135   28.8779 C   0  0  0  0  0  0  0  0  0  0  0  0
  -27.0636   -0.1190   28.6079 C   0  0  0  0  0  0  0  0  0  0  0  0
  -25.7647   -0.3897   29.0360 C   0  0  0  0  0  0  0  0  0  0  0  0
  -25.5296   -1.5302   29.9014 C   0  0  0  0  0  0  0  0  0  0  0  0
  -26.6888   -2.2893   30.1810 C   0  0  0  0  0  0  0  0  0  0  0  0
  -27.8727   -1.9508   29.7373 C   0  0  0  0  0  0  0  0  0  0  0  0
  -24.5491    0.4100   28.7341 C   0  0  0  0  0  0  0  0  0  0  0  0
  -24.0931    1.3779   29.5761 C   0  0  0  0  0  0  0  0  0  0  0  0
  -24.8271    1.7177   30.7369 C   0  0  0  0  0  0  0  0  0  0  0  0
  -24.5235    2.9447   31.4141 C   0  0  0  0  0  0  0  0  0  0  0  0
  -25.3250    3.3490   32.5144 C   0  0  0  0  0  0  0  0  0  0  0  0
  -26.2775    2.4608   33.0250 C   0  0  0  0  0  0  0  0  0  0  0  0
  -26.5078    1.2660   32.4262 C   0  0  0  0  0  0  0  0  0  0  0  0
  -25.7824    0.8941   31.3430 C   0  0  0  0  0  0  0  0  0  0  0  0
  -27.2046    1.1472   27.7750 C   0  0  0  0  0  0  0  0  0  0  0  0
  -28.3995    1.5678   27.4148 C   0  0  0  0  0  0  0  0  0  0  0  0
  -29.4955    0.7034   27.8459 C   0  0  0  0  0  0  0  0  0  0  0  0
  3  7  1  0
  7  8  2  3
  8  9  1  0
  2 15  1  0
 15 16  2  3
 16 17  1  0
  1  2  2  0
  2  3  1  0
  3  4  2  0
  4  5  1  0
  5  6  2  0
  6  1  1  0
  9 10  2  0
 10 11  1  0
 11 12  2  0
 12 13  1  0
 13 14  2  0
 14  9  1  0
M  END

$$$$
