No_2658-gen_results/8p0m/2024-11-27-11-27-31/
     RDKit          3D

 28 30  0  0  0  0  0  0  0  0999 V2000
  -28.0162   -0.8135   28.8779 C   0  0  0  0  0  0  0  0  0  0  0  0
  -27.0636   -0.1189   28.6079 C   0  0  0  0  0  0  0  0  0  0  0  0
  -27.0010    0.6913   27.4910 C   0  0  0  0  0  0  0  0  0  0  0  0
  -25.8548    1.4825   27.0830 C   0  0  0  0  0  0  0  0  0  0  0  0
  -24.6901    1.4526   27.8807 C   0  0  0  0  0  0  0  0  0  0  0  0
  -24.7379    0.6010   29.0416 C   0  0  0  0  0  0  0  0  0  0  0  0
  -25.8234   -0.1688   29.3887 C   0  0  0  0  0  0  0  0  0  0  0  0
  -28.7125   -0.4634   30.1695 C   0  0  0  0  0  0  0  0  0  0  0  0
  -29.8024   -1.3264   30.6568 C   0  0  0  0  0  0  0  0  0  0  0  0
  -30.0663   -2.3642   29.9669 C   0  0  0  0  0  0  0  0  0  0  0  0
  -31.2421   -3.0597   30.4690 C   0  0  0  0  0  0  0  0  0  0  0  0
  -31.6216   -4.2815   29.7911 C   0  0  0  0  0  0  0  0  0  0  0  0
  -32.3820   -4.1054   28.6475 C   0  0  0  0  0  0  0  0  0  0  0  0
  -32.1821   -4.9822   27.6494 C   0  0  0  0  0  0  0  0  0  0  0  0
  -31.4056   -6.1790   27.8366 C   0  0  0  0  0  0  0  0  0  0  0  0
  -30.6735   -6.3348   28.9970 C   0  0  0  0  0  0  0  0  0  0  0  0
  -30.6628   -5.2730   29.9145 C   0  0  0  0  0  0  0  0  0  0  0  0
  -23.5066    2.1970   27.5642 C   0  0  0  0  0  0  0  0  0  0  0  0
  -23.2185    2.5500   26.3590 N   0  0  0  0  0  0  0  0  0  0  0  0
  -22.6541    2.5289   28.4493 O   0  0  0  0  0  0  0  0  0  0  0  0
  -31.0008   -3.3386   31.9491 C   0  0  0  0  0  0  0  0  0  0  0  0
  -32.5169   -2.0964   30.4843 C   0  0  0  0  0  0  0  0  0  0  0  0
  -33.2334   -1.9789   31.4631 C   0  0  0  0  0  0  0  0  0  0  0  0
  -31.9408   -3.2977   32.9748 C   0  0  0  0  0  0  0  0  0  0  0  0
  -32.9417   -2.4395   32.7644 C   0  0  0  0  0  0  0  0  0  0  0  0
  -33.9633   -2.2389   33.8653 C   0  0  0  0  0  0  0  0  0  0  0  0
  -34.9457   -1.7478   33.7871 O   0  0  0  0  0  0  0  0  0  0  0  0
  -33.3520   -2.3443   35.0870 O   0  0  0  0  0  0  0  0  0  0  0  0
  1  2  1  0
  1  8  2  3
  8  9  1  0
  9 10  2  3
 10 11  1  0
 11 12  1  0
  5 18  1  0
 18 19  1  0
 18 20  2  0
 11 21  1  0
 11 22  1  0
 23 25  1  0
 24 25  1  0
 25 26  1  0
 26 27  2  0
 26 28  1  0
 21 24  1  0
 23 22  1  0
 12 13  2  0
 13 14  1  0
 14 15  2  0
 15 16  1  0
 16 17  2  0
 17 12  1  0
  2  3  2  0
  3  4  1  0
  4  5  2  0
  5  6  1  0
  6  7  2  0
  7  2  1  0
M  END

$$$$
