No_2539-gen_results/8p0m/2024-11-27-11-27-31/
     RDKit          3D

 31 34  0  0  0  0  0  0  0  0999 V2000
  -28.0162   -0.8135   28.8779 C   0  0  0  0  0  0  0  0  0  0  0  0
  -27.0636   -0.1189   28.6079 C   0  0  0  0  0  0  0  0  0  0  0  0
  -25.7923   -0.4302   29.0761 C   0  0  0  0  0  0  0  0  0  0  0  0
  -24.5456    0.3494   28.8225 C   0  0  0  0  0  0  0  0  0  0  0  0
  -23.2409    0.0217   29.3323 C   0  0  0  0  0  0  0  0  0  0  0  0
  -27.8820   -1.8995   29.8633 C   0  0  0  0  0  0  0  0  0  0  0  0
  -26.6706   -2.3272   30.3212 C   0  0  0  0  0  0  0  0  0  0  0  0
  -25.5433   -1.5852   29.9316 C   0  0  0  0  0  0  0  0  0  0  0  0
  -22.1918    0.8302   29.0004 C   0  0  0  0  0  0  0  0  0  0  0  0
  -22.1472    1.7783   28.0287 C   0  0  0  0  0  0  0  0  0  0  0  0
  -24.3170    1.1382   27.6172 C   0  0  0  0  0  0  0  0  0  0  0  0
  -25.5747    1.4464   26.8744 C   0  0  0  0  0  0  0  0  0  0  0  0
  -23.2703    1.9124   27.2707 C   0  0  0  0  0  0  0  0  0  0  0  0
  -27.0228    0.8569   27.4263 C   0  0  0  0  0  0  0  0  0  0  0  0
  -28.2048    1.2726   26.8161 C   0  0  0  0  0  0  0  0  0  0  0  0
  -28.2168    1.4125   25.5251 C   0  0  0  0  0  0  0  0  0  0  0  0
  -28.6432    2.5449   27.5273 C   0  0  0  0  0  0  0  0  0  0  0  0
  -29.0057   -2.5711   30.2246 O   0  0  0  0  0  0  0  0  0  0  0  0
  -29.2939   -2.7488   31.5139 C   0  0  0  0  0  0  0  0  0  0  0  0
  -30.6816   -2.6426   31.7839 C   0  0  0  0  0  0  0  0  0  0  0  0
  -31.4324   -2.0234   30.8557 C   0  0  0  0  0  0  0  0  0  0  0  0
  -31.3305   -3.9548   32.1469 N   0  0  0  0  0  0  0  0  0  0  0  0
  -31.3322   -0.7918   30.7683 O   0  0  0  0  0  0  0  0  0  0  0  0
  -32.2966   -4.1196   32.6448 C   0  0  0  0  0  0  0  0  0  0  0  0
  -32.3557    0.1577   30.6663 C   0  0  0  0  0  0  0  0  0  0  0  0
  -32.0864    1.2908   30.2687 C   0  0  0  0  0  0  0  0  0  0  0  0
  -31.0211    1.8073   30.5650 O   0  0  0  0  0  0  0  0  0  0  0  0
  -32.7332   -5.4607   32.9203 C   0  0  0  0  0  0  0  0  0  0  0  0
  -30.4308   -5.0757   32.4560 C   0  0  0  0  0  0  0  0  0  0  0  0
  -30.8149   -6.3072   32.6521 C   0  0  0  0  0  0  0  0  0  0  0  0
  -32.0341   -6.4911   33.1261 C   0  0  0  0  0  0  0  0  0  0  0  0
  3  4  1  0
 11 12  1  0
  2 14  1  0
 12 14  1  0
 14 15  1  0
 15 16  1  0
 15 17  1  0
  6 18  1  0
 18 19  1  0
 19 20  1  0
 20 21  1  0
 20 22  1  0
 21 23  1  0
 22 24  1  0
 23 25  1  0
 25 26  2  0
 26 27  2  0
 22 29  1  0
 28 31  1  0
 30 31  1  0
 24 28  1  0
 30 29  1  0
  4  5  2  0
  5  9  1  0
  9 10  2  0
 10 13  1  0
 13 11  2  0
 11  4  1  0
  1  2  2  0
  2  3  1  0
  3  8  2  0
  8  7  1  0
  7  6  2  0
  6  1  1  0
M  END

$$$$
