No_213-gen_results/8p0m/2024-11-27-11-27-31/
     RDKit          3D

 35 36  0  0  0  0  0  0  0  0999 V2000
  -28.0162   -0.8135   28.8779 C   0  0  0  0  0  0  0  0  0  0  0  0
  -27.0636   -0.1189   28.6079 C   0  0  0  0  0  0  0  0  0  0  0  0
  -26.9716    0.7139   27.5060 C   0  0  0  0  0  0  0  0  0  0  0  0
  -25.8205    1.4910   27.1160 C   0  0  0  0  0  0  0  0  0  0  0  0
  -24.6562    1.4242   27.9180 C   0  0  0  0  0  0  0  0  0  0  0  0
  -24.6847    0.5901   29.0659 C   0  0  0  0  0  0  0  0  0  0  0  0
  -25.8099   -0.1265   29.3338 C   0  0  0  0  0  0  0  0  0  0  0  0
  -29.2444   -0.0768   29.2011 C   0  0  0  0  0  0  0  0  0  0  0  0
  -30.1448   -0.9270   29.5819 F   0  0  0  0  0  0  0  0  0  0  0  0
  -29.0936    0.7754   30.1693 F   0  0  0  0  0  0  0  0  0  0  0  0
  -29.7053    0.5086   28.1332 F   0  0  0  0  0  0  0  0  0  0  0  0
  -23.4916    2.2375   27.6277 C   0  0  0  0  0  0  0  0  0  0  0  0
  -22.5599    2.2412   28.4860 O   0  0  0  0  0  0  0  0  0  0  0  0
  -23.3730    2.8185   26.4817 O   0  0  0  0  0  0  0  0  0  0  0  0
  -27.6831   -1.5663   30.1412 N   0  0  0  0  0  0  0  0  0  0  0  0
  -27.6649   -2.9902   30.1883 C   0  0  0  0  0  0  0  0  0  0  0  0
  -27.4086   -3.8104   29.1527 C   0  0  0  0  0  0  0  0  0  0  0  0
  -28.3544   -3.4143   31.2540 O   0  0  0  0  0  0  0  0  0  0  0  0
  -26.2329   -4.7367   29.8270 C   0  0  0  0  0  0  0  0  0  0  0  0
  -25.1239   -4.7247   28.7933 C   0  0  0  0  0  0  0  0  0  0  0  0
  -24.4383   -3.4624   28.5113 C   0  0  0  0  0  0  0  0  0  0  0  0
  -23.9887   -2.6486   29.6491 C   0  0  0  0  0  0  0  0  0  0  0  0
  -22.9171   -1.7425   29.3999 C   0  0  0  0  0  0  0  0  0  0  0  0
  -22.1543   -1.1704   30.3691 C   0  0  0  0  0  0  0  0  0  0  0  0
  -22.6781   -1.1045   31.7045 C   0  0  0  0  0  0  0  0  0  0  0  0
  -23.9432   -1.7425   31.9394 C   0  0  0  0  0  0  0  0  0  0  0  0
  -24.5062   -2.5466   30.9156 C   0  0  0  0  0  0  0  0  0  0  0  0
  -27.4703   -0.9101   31.4163 C   0  0  0  0  0  0  0  0  0  0  0  0
  -27.1067   -1.5694   32.3794 C   0  0  0  0  0  0  0  0  0  0  0  0
  -28.2001   -2.0822   33.0742 O   0  0  0  0  0  0  0  0  0  0  0  0
  -28.5152   -1.4907   34.3162 C   0  0  0  0  0  0  0  0  0  0  0  0
  -29.8503   -1.2246   34.4420 C   0  0  0  0  0  0  0  0  0  0  0  0
  -30.2159   -0.2932   34.6202 O   0  0  0  0  0  0  0  0  0  0  0  0
  -30.5800   -2.4246   34.6095 N   0  0  0  0  0  0  0  0  0  0  0  0
  -32.0414   -2.3771   34.5117 C   0  0  0  0  0  0  0  0  0  0  0  0
  1  8  1  0
  8  9  1  0
  8 10  1  0
  8 11  1  0
  5 12  1  0
 12 13  2  0
 12 14  1  0
  1 15  1  0
 15 16  1  0
 16 17  1  0
 16 18  2  0
 17 19  1  0
 19 20  1  0
 20 21  1  0
 21 22  1  0
 15 28  1  0
 28 29  1  0
 29 30  1  0
 30 31  1  0
 31 32  1  0
 32 33  2  0
 32 34  1  0
 34 35  1  0
  1  2  1  0
  2  3  2  0
  3  4  1  0
  4  5  2  0
  5  6  1  0
  6  7  2  0
  7  2  1  0
 22 23  2  0
 23 24  1  0
 24 25  2  0
 25 26  1  0
 26 27  2  0
 27 22  1  0
M  END

$$$$
