No_2347-gen_results/8p0m/2024-11-27-11-27-31/
     RDKit          3D

 16 18  0  0  0  0  0  0  0  0999 V2000
  -28.0162   -0.8135   28.8779 C   0  0  0  0  0  0  0  0  0  0  0  0
  -27.0636   -0.1190   28.6079 C   0  0  0  0  0  0  0  0  0  0  0  0
  -25.8176   -0.3427   29.0488 N   0  0  0  0  0  0  0  0  0  0  0  0
  -24.6757    0.3814   28.7496 C   0  0  0  0  0  0  0  0  0  0  0  0
  -23.4276    0.0095   29.2601 C   0  0  0  0  0  0  0  0  0  0  0  0
  -22.2341    0.6752   28.9665 C   0  0  0  0  0  0  0  0  0  0  0  0
  -22.2074    1.6474   27.9672 C   0  0  0  0  0  0  0  0  0  0  0  0
  -23.4333    2.0438   27.4220 C   0  0  0  0  0  0  0  0  0  0  0  0
  -24.6468    1.3669   27.7395 C   0  0  0  0  0  0  0  0  0  0  0  0
  -29.2727   -0.1537   29.0735 C   0  0  0  0  0  0  0  0  0  0  0  0
  -29.5273    1.0003   28.3310 C   0  0  0  0  0  0  0  0  0  0  0  0
  -28.4645    1.6985   27.8123 C   0  0  0  0  0  0  0  0  0  0  0  0
  -27.1694    1.2502   28.0158 C   0  0  0  0  0  0  0  0  0  0  0  0
  -25.9899    1.9541   27.5588 C   0  0  0  0  0  0  0  0  0  0  0  0
  -25.5444   -1.6168   29.7431 C   0  0  0  0  0  0  0  0  0  0  0  0
  -26.0666    3.1863   26.7650 C   0  0  0  0  0  0  0  0  0  0  0  0
  2  3  1  0
  3  4  1  0
  9 14  1  0
 13 14  1  0
  3 15  1  0
 14 16  1  0
  4  5  2  0
  5  6  1  0
  6  7  2  0
  7  8  1  0
  8  9  2  0
  9  4  1  0
  1  2  2  0
  2 13  1  0
 13 12  2  0
 12 11  1  0
 11 10  2  0
 10  1  1  0
M  END

$$$$
