No_2219-gen_results/8p0m/2024-11-27-11-27-31/
     RDKit          3D

 16 17  0  0  0  0  0  0  0  0999 V2000
  -28.0162   -0.8135   28.8779 C   0  0  0  0  0  0  0  0  0  0  0  0
  -28.4690   -0.7850   29.8287 C   0  0  0  0  0  0  0  0  0  0  0  0
  -28.1960    0.3478   28.0550 C   0  0  0  0  0  0  0  0  0  0  0  0
  -29.0191    1.3501   28.3782 C   0  0  0  0  0  0  0  0  0  0  0  0
  -29.4107    0.1803   30.3782 C   0  0  0  0  0  0  0  0  0  0  0  0
  -29.6059    1.2495   29.6193 C   0  0  0  0  0  0  0  0  0  0  0  0
  -27.5003    0.3576   26.8164 O   0  0  0  0  0  0  0  0  0  0  0  0
  -26.4976    1.3388   26.6595 C   0  0  0  0  0  0  0  0  0  0  0  0
  -25.4372    1.2764   27.6264 C   0  0  0  0  0  0  0  0  0  0  0  0
  -24.4081    2.1899   27.4725 C   0  0  0  0  0  0  0  0  0  0  0  0
  -24.3219    2.9985   26.3192 C   0  0  0  0  0  0  0  0  0  0  0  0
  -25.3804    3.0725   25.4717 C   0  0  0  0  0  0  0  0  0  0  0  0
  -26.4483    2.1982   25.6573 C   0  0  0  0  0  0  0  0  0  0  0  0
  -23.1871    2.1217   28.4013 C   0  0  0  0  0  0  0  0  0  0  0  0
  -22.0753    1.8278   27.8354 O   0  0  0  0  0  0  0  0  0  0  0  0
  -23.3270    2.1610   29.6846 O   0  0  0  0  0  0  0  0  0  0  0  0
  3  7  1  0
  7  8  1  0
 10 14  1  0
 14 15  2  0
 14 16  1  0
  8  9  2  0
  9 10  1  0
 10 11  2  0
 11 12  1  0
 12 13  2  0
 13  8  1  0
  1  2  2  0
  2  5  1  0
  5  6  2  0
  6  4  1  0
  4  3  2  0
  3  1  1  0
M  END

$$$$
