No_2056-gen_results/8p0m/2024-11-27-11-27-31/
     RDKit          3D

 30 31  0  0  0  0  0  0  0  0999 V2000
  -28.0162   -0.8135   28.8779 C   0  0  0  0  0  0  0  0  0  0  0  0
  -28.4690   -0.7850   29.8287 C   0  0  0  0  0  0  0  0  0  0  0  0
  -28.1960    0.3478   28.0550 C   0  0  0  0  0  0  0  0  0  0  0  0
  -29.0191    1.3501   28.3782 C   0  0  0  0  0  0  0  0  0  0  0  0
  -29.4107    0.1803   30.3782 C   0  0  0  0  0  0  0  0  0  0  0  0
  -29.6059    1.2495   29.6193 C   0  0  0  0  0  0  0  0  0  0  0  0
  -27.4478    0.3799   26.7122 C   0  0  0  0  0  0  0  0  0  0  0  0
  -25.9806    0.2548   26.7837 C   0  0  0  0  0  0  0  0  0  0  0  0
  -25.1964    1.0470   25.9940 C   0  0  0  0  0  0  0  0  0  0  0  0
  -23.8162    1.1039   26.1816 C   0  0  0  0  0  0  0  0  0  0  0  0
  -23.2215    0.6282   27.3851 C   0  0  0  0  0  0  0  0  0  0  0  0
  -24.0826   -0.0651   28.2761 C   0  0  0  0  0  0  0  0  0  0  0  0
  -25.4322   -0.1919   28.0477 C   0  0  0  0  0  0  0  0  0  0  0  0
  -23.4437   -0.5525   29.5238 C   0  0  0  0  0  0  0  0  0  0  0  0
  -22.5274    0.1046   30.0863 C   0  0  0  0  0  0  0  0  0  0  0  0
  -23.7858   -1.9304   29.8599 C   0  0  0  0  0  0  0  0  0  0  0  0
  -30.5974    2.3559   30.0242 C   0  0  0  0  0  0  0  0  0  0  0  0
  -30.7040    2.7409   31.1092 O   0  0  0  0  0  0  0  0  0  0  0  0
  -31.0152    3.0467   29.0123 O   0  0  0  0  0  0  0  0  0  0  0  0
  -28.2853   -2.0058   30.9106 C   0  0  0  0  0  0  0  0  0  0  0  0
  -27.5967   -2.8950   30.5147 O   0  0  0  0  0  0  0  0  0  0  0  0
  -28.8762   -1.9979   32.0171 O   0  0  0  0  0  0  0  0  0  0  0  0
  -28.1040    0.5103   25.5227 C   0  0  0  0  0  0  0  0  0  0  0  0
  -27.9893    1.6385   25.0279 F   0  0  0  0  0  0  0  0  0  0  0  0
  -27.6963   -0.4529   24.7104 F   0  0  0  0  0  0  0  0  0  0  0  0
  -29.4274    0.2720   25.5915 F   0  0  0  0  0  0  0  0  0  0  0  0
  -24.4513   -2.6423   29.1090 N   0  0  0  0  0  0  0  0  0  0  0  0
  -24.4728   -4.0083   29.1733 C   0  0  0  0  0  0  0  0  0  0  0  0
  -25.6110   -4.7616   28.8904 C   0  0  0  0  0  0  0  0  0  0  0  0
  -26.6325   -4.2963   29.5113 O   0  0  0  0  0  0  0  0  0  0  0  0
  3  7  1  0
  7  8  1  0
 12 14  1  0
 14 15  2  0
 14 16  1  0
  6 17  1  0
 17 18  2  0
 17 19  1  0
  2 20  1  0
 20 21  2  0
 20 22  1  0
  7 23  1  0
 23 24  1  0
 23 25  1  0
 23 26  1  0
 16 27  1  0
 27 28  1  0
 28 29  1  0
 29 30  2  0
  8  9  2  0
  9 10  1  0
 10 11  2  0
 11 12  1  0
 12 13  2  0
 13  8  1  0
  1  2  2  0
  2  5  1  0
  5  6  2  0
  6  4  1  0
  4  3  2  0
  3  1  1  0
M  END

$$$$
