No_2177-gen_results/8p0m/2024-11-27-11-27-31/
     RDKit          3D

 35 38  0  0  0  0  0  0  0  0999 V2000
  -28.1229   -1.3353   28.4874 O   0  0  0  0  0  0  0  0  0  0  0  0
  -28.5208   -0.4363   29.0779 C   0  0  0  0  0  0  0  0  0  0  0  0
  -28.5894    0.5916   28.9464 C   0  0  0  0  0  0  0  0  0  0  0  0
  -28.7865   -0.8872   30.4874 N   0  0  0  0  0  0  0  0  0  0  0  0
  -27.7841    1.2822   27.9869 C   0  0  0  0  0  0  0  0  0  0  0  0
  -28.0838    1.5823   26.7801 C   0  0  0  0  0  0  0  0  0  0  0  0
  -27.1210    2.0132   25.7117 C   0  0  0  0  0  0  0  0  0  0  0  0
  -25.7656    2.1252   26.0617 C   0  0  0  0  0  0  0  0  0  0  0  0
  -25.3777    1.7748   27.4171 C   0  0  0  0  0  0  0  0  0  0  0  0
  -26.3155    1.3420   28.2647 C   0  0  0  0  0  0  0  0  0  0  0  0
  -28.7072   -2.3024   30.9314 C   0  0  0  0  0  0  0  0  0  0  0  0
  -23.9641    1.8944   27.7598 C   0  0  0  0  0  0  0  0  0  0  0  0
  -23.6157    2.0610   29.0258 N   0  0  0  0  0  0  0  0  0  0  0  0
  -22.9836    2.0127   26.9322 O   0  0  0  0  0  0  0  0  0  0  0  0
  -29.2773    0.0108   31.5127 C   0  0  0  0  0  0  0  0  0  0  0  0
  -29.7616   -2.7449   31.6802 C   0  0  0  0  0  0  0  0  0  0  0  0
  -30.4576   -3.4600   31.4597 C   0  0  0  0  0  0  0  0  0  0  0  0
  -31.6313   -3.9776   32.2818 C   0  0  0  0  0  0  0  0  0  0  0  0
  -31.7566   -3.3514   33.5259 C   0  0  0  0  0  0  0  0  0  0  0  0
  -30.8694   -2.4155   33.9066 C   0  0  0  0  0  0  0  0  0  0  0  0
  -29.8252   -2.0183   33.0677 C   0  0  0  0  0  0  0  0  0  0  0  0
  -28.3356    0.3217   32.4008 C   0  0  0  0  0  0  0  0  0  0  0  0
  -30.5305    0.5108   31.3735 C   0  0  0  0  0  0  0  0  0  0  0  0
  -30.9983    1.4349   32.3625 C   0  0  0  0  0  0  0  0  0  0  0  0
  -28.7386    1.3465   33.4051 C   0  0  0  0  0  0  0  0  0  0  0  0
  -30.0385    1.8556   33.3576 C   0  0  0  0  0  0  0  0  0  0  0  0
  -32.3324    1.9580   32.3817 C   0  0  0  0  0  0  0  0  0  0  0  0
  -32.9505    2.0363   33.4318 C   0  0  0  0  0  0  0  0  0  0  0  0
  -34.2947    2.4619   33.4777 C   0  0  0  0  0  0  0  0  0  0  0  0
  -32.9382    2.2422   31.1643 C   0  0  0  0  0  0  0  0  0  0  0  0
  -34.2707    2.7007   31.1328 C   0  0  0  0  0  0  0  0  0  0  0  0
  -34.9288    2.8104   32.3526 C   0  0  0  0  0  0  0  0  0  0  0  0
  -36.3315    3.2924   32.3251 C   0  0  0  0  0  0  0  0  0  0  0  0
  -37.4858    2.9073   31.5998 Cl  0  0  0  0  0  0  0  0  0  0  0  0
  -36.4372    4.4522   33.3243 C   0  0  0  0  0  0  0  0  0  0  0  0
  1  2  2  0
  2  3  1  0
  2  4  1  0
  3  5  1  0
  4 11  1  0
  9 12  1  0
 12 13  1  0
 12 14  2  0
  4 15  1  0
 11 16  1  0
 24 27  1  0
 32 33  1  0
 33 34  1  0
 33 35  1  0
  5  6  2  0
  6  7  1  0
  7  8  2  0
  8  9  1  0
  9 10  2  0
 10  5  1  0
 27 28  2  0
 28 29  1  0
 29 32  2  0
 32 31  1  0
 31 30  2  0
 30 27  1  0
 15 22  2  0
 22 25  1  0
 25 26  2  0
 26 24  1  0
 24 23  2  0
 23 15  1  0
 16 17  2  0
 17 18  1  0
 18 19  2  0
 19 20  1  0
 20 21  2  0
 21 16  1  0
M  END

$$$$
