No_2507-gen_results/8p0m/2024-11-27-11-27-31/
     RDKit          3D

 15 15  0  0  0  0  0  0  0  0999 V2000
  -28.1146   -0.6256   29.0813 Br  0  0  0  0  0  0  0  0  0  0  0  0
  -28.0686    0.2105   30.1716 C   0  0  0  0  0  0  0  0  0  0  0  0
  -28.0003    0.8873   30.9176 C   0  0  0  0  0  0  0  0  0  0  0  0
  -27.7329    1.7228   31.9805 C   0  0  0  0  0  0  0  0  0  0  0  0
  -27.3559    2.7820   32.5146 C   0  0  0  0  0  0  0  0  0  0  0  0
  -26.8487    3.8421   33.1374 C   0  0  0  0  0  0  0  0  0  0  0  0
  -26.0951    4.3208   33.6325 C   0  0  0  0  0  0  0  0  0  0  0  0
  -25.0327    5.2138   33.9555 C   0  0  0  0  0  0  0  0  0  0  0  0
  -25.1356    6.1183   34.9431 N   0  0  0  0  0  0  0  0  0  0  0  0
  -25.6679    5.9751   36.0583 C   0  0  0  0  0  0  0  0  0  0  0  0
  -26.6815    5.0150   36.0812 C   0  0  0  0  0  0  0  0  0  0  0  0
  -26.8598    4.3942   35.2053 C   0  0  0  0  0  0  0  0  0  0  0  0
  -24.3092    5.4458   32.8218 O   0  0  0  0  0  0  0  0  0  0  0  0
  -23.9024    7.1748   35.0144 C   0  0  0  0  0  0  0  0  0  0  0  0
  -23.3491    7.4570   33.7960 C   0  0  0  0  0  0  0  0  0  0  0  0
  1  2  1  0
  2  3  3  0
  3  4  1  0
  4  5  2  3
  5  6  1  0
  7  8  1  0
  8  9  1  0
  9 10  1  0
  7 12  1  0
 11 12  1  0
  8 13  2  0
  9 14  1  0
 14 15  1  0
  6  7  1  0
 11 10  1  0
M  END

$$$$
