No_262-gen_results/8p0m/2024-11-27-11-27-31/
     RDKit          3D

 19 20  0  0  0  0  0  0  0  0999 V2000
  -28.0162   -0.8135   28.8779 C   0  0  0  0  0  0  0  0  0  0  0  0
  -28.4690   -0.7850   29.8287 C   0  0  0  0  0  0  0  0  0  0  0  0
  -26.5042   -0.7777   28.8766 C   0  0  0  0  0  0  0  0  0  0  0  0
  -25.6540   -0.6597   27.7191 C   0  0  0  0  0  0  0  0  0  0  0  0
  -27.9180   -0.9374   31.1824 C   0  0  0  0  0  0  0  0  0  0  0  0
  -26.5423   -0.9399   31.2606 C   0  0  0  0  0  0  0  0  0  0  0  0
  -25.7832   -0.8935   30.1201 C   0  0  0  0  0  0  0  0  0  0  0  0
  -25.2204    0.6866   27.3939 C   0  0  0  0  0  0  0  0  0  0  0  0
  -25.3029    1.0787   26.0731 C   0  0  0  0  0  0  0  0  0  0  0  0
  -24.7297    2.3383   25.6867 C   0  0  0  0  0  0  0  0  0  0  0  0
  -24.0919    3.1193   26.6980 C   0  0  0  0  0  0  0  0  0  0  0  0
  -24.4906    1.5258   28.2612 C   0  0  0  0  0  0  0  0  0  0  0  0
  -23.9466    2.6799   27.9003 C   0  0  0  0  0  0  0  0  0  0  0  0
  -29.9006   -0.8181   29.8415 F   0  0  0  0  0  0  0  0  0  0  0  0
  -25.8321    0.4479   25.1323 F   0  0  0  0  0  0  0  0  0  0  0  0
  -28.9388   -1.0366   32.5696 Cl  0  0  0  0  0  0  0  0  0  0  0  0
  -24.3809   -0.9814   30.2226 C   0  0  0  0  0  0  0  0  0  0  0  0
  -23.7403   -0.4062   31.2180 C   0  0  0  0  0  0  0  0  0  0  0  0
  -22.2485   -0.5469   31.3268 C   0  0  0  0  0  0  0  0  0  0  0  0
  3  4  1  0
  4  8  1  0
  2 14  1  0
  9 15  1  0
  5 16  1  0
  7 17  1  0
 17 18  2  3
 18 19  1  0
  1  2  2  0
  2  5  1  0
  5  6  2  0
  6  7  1  0
  7  3  2  0
  3  1  1  0
  8  9  2  0
  9 10  1  0
 10 11  2  0
 11 13  1  0
 13 12  2  0
 12  8  1  0
M  END

$$$$
