No_2544-gen_results/8p0m/2024-11-27-11-27-31/
     RDKit          3D

  6  6  0  0  0  0  0  0  0  0999 V2000
  -28.0162   -0.8135   28.8779 C   0  0  0  0  0  0  0  0  0  0  0  0
  -27.0636   -0.1189   28.6079 C   0  0  0  0  0  0  0  0  0  0  0  0
  -25.7902   -0.2340   29.1297 C   0  0  0  0  0  0  0  0  0  0  0  0
  -25.5192   -1.2814   30.1157 C   0  0  0  0  0  0  0  0  0  0  0  0
  -26.6757   -2.0962   30.3881 C   0  0  0  0  0  0  0  0  0  0  0  0
  -27.8504   -1.8814   29.8335 C   0  0  0  0  0  0  0  0  0  0  0  0
  1  2  2  0
  2  3  1  0
  3  4  2  0
  4  5  1  0
  5  6  2  0
  6  1  1  0
M  END

$$$$
