No_275-gen_results/8p0m/2024-11-27-11-27-31/
     RDKit          3D

 26 27  0  0  0  0  0  0  0  0999 V2000
  -28.0162   -0.8135   28.8779 C   0  0  0  0  0  0  0  0  0  0  0  0
  -27.0636   -0.1189   28.6079 C   0  0  0  0  0  0  0  0  0  0  0  0
  -25.7923   -0.4302   29.0761 C   0  0  0  0  0  0  0  0  0  0  0  0
  -24.5456    0.3494   28.8225 C   0  0  0  0  0  0  0  0  0  0  0  0
  -23.2409    0.0217   29.3323 C   0  0  0  0  0  0  0  0  0  0  0  0
  -27.8820   -1.8995   29.8633 C   0  0  0  0  0  0  0  0  0  0  0  0
  -26.6706   -2.3272   30.3212 C   0  0  0  0  0  0  0  0  0  0  0  0
  -25.5433   -1.5852   29.9316 C   0  0  0  0  0  0  0  0  0  0  0  0
  -22.1918    0.8302   29.0004 C   0  0  0  0  0  0  0  0  0  0  0  0
  -22.1472    1.7783   28.0287 C   0  0  0  0  0  0  0  0  0  0  0  0
  -24.5322    1.3987   27.8163 C   0  0  0  0  0  0  0  0  0  0  0  0
  -23.3620    2.0694   27.4607 C   0  0  0  0  0  0  0  0  0  0  0  0
  -29.0617   -2.7252   30.3001 C   0  0  0  0  0  0  0  0  0  0  0  0
  -29.2904   -2.7271   31.4994 O   0  0  0  0  0  0  0  0  0  0  0  0
  -29.4109   -3.7673   29.6190 O   0  0  0  0  0  0  0  0  0  0  0  0
  -23.4816    3.0203   26.5025 O   0  0  0  0  0  0  0  0  0  0  0  0
  -24.7857    3.3019   26.0732 C   0  0  0  0  0  0  0  0  0  0  0  0
  -29.2184   -0.5443   28.4992 F   0  0  0  0  0  0  0  0  0  0  0  0
  -27.1243    0.9056   27.7739 O   0  0  0  0  0  0  0  0  0  0  0  0
  -27.7955    0.9674   26.6787 C   0  0  0  0  0  0  0  0  0  0  0  0
  -27.1762    1.0649   25.5362 C   0  0  0  0  0  0  0  0  0  0  0  0
  -27.9389    0.9117   24.2980 C   0  0  0  0  0  0  0  0  0  0  0  0
  -29.3719    0.8511   24.3914 C   0  0  0  0  0  0  0  0  0  0  0  0
  -29.9779    0.8573   25.6270 C   0  0  0  0  0  0  0  0  0  0  0  0
  -29.2003    0.9172   26.7230 C   0  0  0  0  0  0  0  0  0  0  0  0
  -27.2660    0.2021   26.2078 Br  0  0  0  0  0  0  0  0  0  0  0  0
  3  4  1  0
  6 13  1  0
 13 14  2  0
 13 15  1  0
 12 16  1  0
 16 17  1  0
  1 18  1  0
  2 19  1  0
 19 20  1  0
 20 21  2  3
 21 22  1  0
 22 23  2  3
 23 24  1  0
 24 25  2  0
 20 26  1  0
  1  2  2  0
  2  3  1  0
  3  8  2  0
  8  7  1  0
  7  6  2  0
  6  1  1  0
  4  5  2  0
  5  9  1  0
  9 10  2  0
 10 12  1  0
 12 11  2  0
 11  4  1  0
M  END

$$$$
