No_2727-gen_results/8p0m/2024-11-27-11-27-31/
     RDKit          3D

 14 16  0  0  0  0  0  0  0  0999 V2000
  -28.1229   -1.3353   28.4874 O   0  0  0  0  0  0  0  0  0  0  0  0
  -27.4806   -0.4044   28.7094 C   0  0  0  0  0  0  0  0  0  0  0  0
  -26.3804   -0.0867   27.9394 C   0  0  0  0  0  0  0  0  0  0  0  0
  -27.4232    0.1749   30.0549 N   0  0  0  0  0  0  0  0  0  0  0  0
  -25.8482    1.0048   27.9942 C   0  0  0  0  0  0  0  0  0  0  0  0
  -25.8487    1.7377   29.2952 C   0  0  0  0  0  0  0  0  0  0  0  0
  -26.7619    1.3299   30.2362 C   0  0  0  0  0  0  0  0  0  0  0  0
  -24.8326    1.3605   27.0198 C   0  0  0  0  0  0  0  0  0  0  0  0
  -23.5220    1.6425   27.3563 C   0  0  0  0  0  0  0  0  0  0  0  0
  -23.0383    1.4765   28.7021 C   0  0  0  0  0  0  0  0  0  0  0  0
  -23.6805    1.7614   29.8968 C   0  0  0  0  0  0  0  0  0  0  0  0
  -24.9306    1.6251   30.2087 C   0  0  0  0  0  0  0  0  0  0  0  0
  -25.1905    1.5276   31.7911 C   0  0  0  0  0  0  0  0  0  0  0  0
  -26.6254    1.7298   31.7363 C   0  0  0  0  0  0  0  0  0  0  0  0
  1  2  2  0
  2  3  1  0
  2  4  1  0
  5  6  1  0
  4  7  1  0
  5  8  1  0
  8  9  1  0
  9 10  1  0
 10 11  2  0
  6 12  1  0
 11 12  1  0
 12 13  1  0
  7 14  1  0
 13 14  1  0
  3  5  1  0
  6  7  1  0
M  END

$$$$
