No_2430-gen_results/8p0m/2024-11-27-11-27-31/
     RDKit          3D

 19 20  0  0  0  0  0  0  0  0999 V2000
  -28.0162   -0.8135   28.8779 C   0  0  0  0  0  0  0  0  0  0  0  0
  -27.0636   -0.1189   28.6079 C   0  0  0  0  0  0  0  0  0  0  0  0
  -25.7923   -0.4302   29.0761 C   0  0  0  0  0  0  0  0  0  0  0  0
  -24.5456    0.3494   28.8225 C   0  0  0  0  0  0  0  0  0  0  0  0
  -24.6586    1.4196   27.8878 C   0  0  0  0  0  0  0  0  0  0  0  0
  -25.9471    1.6811   27.3792 C   0  0  0  0  0  0  0  0  0  0  0  0
  -27.0439    0.9739   27.6871 C   0  0  0  0  0  0  0  0  0  0  0  0
  -29.1797   -0.1202   29.1288 N   0  0  0  0  0  0  0  0  0  0  0  0
  -30.2095   -0.7652   29.7428 C   0  0  0  0  0  0  0  0  0  0  0  0
  -23.4456    2.1545   27.6087 C   0  0  0  0  0  0  0  0  0  0  0  0
  -23.6280    3.2478   27.0631 F   0  0  0  0  0  0  0  0  0  0  0  0
  -22.6586    2.3982   28.6864 F   0  0  0  0  0  0  0  0  0  0  0  0
  -22.6118    1.4432   26.7770 F   0  0  0  0  0  0  0  0  0  0  0  0
  -29.9273   -1.8751   30.4258 C   0  0  0  0  0  0  0  0  0  0  0  0
  -30.9228   -2.7707   30.8366 C   0  0  0  0  0  0  0  0  0  0  0  0
  -28.5823   -2.4428   30.5867 C   0  0  0  0  0  0  0  0  0  0  0  0
  -27.6293   -1.8720   29.8579 C   0  0  0  0  0  0  0  0  0  0  0  0
  -31.3297   -0.2558   29.7210 O   0  0  0  0  0  0  0  0  0  0  0  0
  -32.0103   -2.5264   30.7536 O   0  0  0  0  0  0  0  0  0  0  0  0
  1  2  1  0
  1  8  1  0
  8  9  1  0
  5 10  1  0
 10 11  1  0
 10 12  1  0
 10 13  1  0
  9 14  1  0
 14 16  1  0
  1 17  1  0
  9 18  2  0
 15 19  1  0
 15 14  1  0
 17 16  1  0
  2  3  2  0
  3  4  1  0
  4  5  2  0
  5  6  1  0
  6  7  2  0
  7  2  1  0
M  END

$$$$
