No_2778-gen_results/8p0m/2024-11-27-11-27-31/
     RDKit          3D

 11 12  0  0  0  0  0  0  0  0999 V2000
  -28.1229   -1.3353   28.4874 O   0  0  0  0  0  0  0  0  0  0  0  0
  -27.4806   -0.4044   28.7094 C   0  0  0  0  0  0  0  0  0  0  0  0
  -26.4599   -0.1104   28.0051 N   0  0  0  0  0  0  0  0  0  0  0  0
  -25.4297    0.8788   28.3572 C   0  0  0  0  0  0  0  0  0  0  0  0
  -25.6985    1.5873   29.3706 C   0  0  0  0  0  0  0  0  0  0  0  0
  -27.7528    0.2412   29.9527 N   0  0  0  0  0  0  0  0  0  0  0  0
  -24.7652    2.6450   29.9108 C   0  0  0  0  0  0  0  0  0  0  0  0
  -26.8441    1.2896   30.3633 C   0  0  0  0  0  0  0  0  0  0  0  0
  -24.3637    1.1568   27.5139 C   0  0  0  0  0  0  0  0  0  0  0  0
  -23.3866    2.1070   27.8877 C   0  0  0  0  0  0  0  0  0  0  0  0
  -23.6339    2.8423   29.0800 C   0  0  0  0  0  0  0  0  0  0  0  0
  1  2  2  0
  2  3  1  0
  3  4  1  0
  2  6  1  0
  5  8  1  0
  8  6  1  0
  4  5  2  0
  5  7  1  0
  7 11  2  0
 11 10  1  0
 10  9  2  0
  9  4  1  0
M  END

$$$$
