No_204-gen_results/8p0m/2024-11-27-11-27-31/
     RDKit          3D

  9  9  0  0  0  0  0  0  0  0999 V2000
  -28.1229   -1.3353   28.4874 O   0  0  0  0  0  0  0  0  0  0  0  0
  -27.4806   -0.4044   28.7094 C   0  0  0  0  0  0  0  0  0  0  0  0
  -27.1904    0.2460   29.5268 C   0  0  0  0  0  0  0  0  0  0  0  0
  -26.8157    0.1371   27.4262 N   0  0  0  0  0  0  0  0  0  0  0  0
  -26.5177    0.6156   30.2044 C   0  0  0  0  0  0  0  0  0  0  0  0
  -25.8264    1.1138   27.5377 C   0  0  0  0  0  0  0  0  0  0  0  0
  -25.1989    1.6976   28.6019 C   0  0  0  0  0  0  0  0  0  0  0  0
  -25.5081    1.5781   29.9068 C   0  0  0  0  0  0  0  0  0  0  0  0
  -24.1880    2.5262   28.2180 F   0  0  0  0  0  0  0  0  0  0  0  0
  1  2  2  0
  2  3  1  0
  2  4  1  0
  3  5  3  0
  4  6  2  0
  6  7  1  0
  5  8  1  0
  7  8  1  0
  7  9  1  0
M  END

$$$$
