No_2758-gen_results/8p0m/2024-11-27-11-27-31/
     RDKit          3D

 18 18  0  0  0  0  0  0  0  0999 V2000
  -28.0162   -0.8135   28.8779 C   0  0  0  0  0  0  0  0  0  0  0  0
  -27.0636   -0.1189   28.6079 C   0  0  0  0  0  0  0  0  0  0  0  0
  -25.7647   -0.3897   29.0360 C   0  0  0  0  0  0  0  0  0  0  0  0
  -25.5296   -1.5302   29.9014 C   0  0  0  0  0  0  0  0  0  0  0  0
  -26.6888   -2.2893   30.1810 C   0  0  0  0  0  0  0  0  0  0  0  0
  -27.8727   -1.9508   29.7373 C   0  0  0  0  0  0  0  0  0  0  0  0
  -24.6993    0.3604   28.7753 F   0  0  0  0  0  0  0  0  0  0  0  0
  -28.9654   -2.7324   30.0906 O   0  0  0  0  0  0  0  0  0  0  0  0
  -28.8025   -3.9628   30.5897 C   0  0  0  0  0  0  0  0  0  0  0  0
  -29.9349   -4.4125   31.3374 C   0  0  0  0  0  0  0  0  0  0  0  0
  -29.7344   -5.4730   31.7008 F   0  0  0  0  0  0  0  0  0  0  0  0
  -30.1394   -3.6044   32.3350 F   0  0  0  0  0  0  0  0  0  0  0  0
  -31.0668   -4.3668   30.5212 F   0  0  0  0  0  0  0  0  0  0  0  0
  -28.3855   -4.7860   29.5991 F   0  0  0  0  0  0  0  0  0  0  0  0
  -27.1462    1.0854   27.6646 C   0  0  0  0  0  0  0  0  0  0  0  0
  -27.2309    2.2305   28.0714 C   0  0  0  0  0  0  0  0  0  0  0  0
  -27.2049    0.7511   26.2517 C   0  0  0  0  0  0  0  0  0  0  0  0
  -26.8149   -0.2758   25.6439 C   0  0  0  0  0  0  0  0  0  0  0  0
  3  7  1  0
  6  8  1  0
  8  9  1  0
  9 10  1  0
 10 11  1  0
 10 12  1  0
 10 13  1  0
  9 14  1  0
  2 15  1  0
 15 16  1  0
 15 17  1  0
 17 18  1  0
  1  2  2  0
  2  3  1  0
  3  4  2  0
  4  5  1  0
  5  6  2  0
  6  1  1  0
M  END

$$$$
