No_2021-gen_results/8p0m/2024-11-27-11-27-31/
     RDKit          3D

 30 32  0  0  0  0  0  0  0  0999 V2000
  -28.0162   -0.8135   28.8779 C   0  0  0  0  0  0  0  0  0  0  0  0
  -28.4690   -0.7850   29.8287 C   0  0  0  0  0  0  0  0  0  0  0  0
  -26.5455   -0.8762   28.8500 C   0  0  0  0  0  0  0  0  0  0  0  0
  -25.8041   -1.0324   30.0571 C   0  0  0  0  0  0  0  0  0  0  0  0
  -27.9437   -0.9869   31.2075 C   0  0  0  0  0  0  0  0  0  0  0  0
  -26.5825   -1.0386   31.2231 C   0  0  0  0  0  0  0  0  0  0  0  0
  -30.0638   -0.7948   30.0639 C   0  0  0  0  0  0  0  0  0  0  0  0
  -30.7192   -1.6694   30.2722 N   0  0  0  0  0  0  0  0  0  0  0  0
  -30.3051   -2.7367   30.7416 C   0  0  0  0  0  0  0  0  0  0  0  0
  -31.2409   -3.9446   30.7194 C   0  0  0  0  0  0  0  0  0  0  0  0
  -32.1011   -1.7439   29.9216 C   0  0  0  0  0  0  0  0  0  0  0  0
  -32.8778   -2.8138   29.8886 C   0  0  0  0  0  0  0  0  0  0  0  0
  -32.4422   -3.9300   30.3992 C   0  0  0  0  0  0  0  0  0  0  0  0
  -30.3597    0.4507   30.1938 O   0  0  0  0  0  0  0  0  0  0  0  0
  -24.1115   -1.0891   30.0526 S   0  0  0  0  0  0  0  0  0  0  0  0
  -23.6604    0.3769   29.9222 C   0  0  0  0  0  0  0  0  0  0  0  0
  -22.5638    0.6270   29.0722 C   0  0  0  0  0  0  0  0  0  0  0  0
  -24.2542    1.4530   30.6631 C   0  0  0  0  0  0  0  0  0  0  0  0
  -22.4920    1.8462   28.4931 N   0  0  0  0  0  0  0  0  0  0  0  0
  -25.0438    1.3443   31.6626 N   0  0  0  0  0  0  0  0  0  0  0  0
  -25.5662    2.4333   32.3743 C   0  0  0  0  0  0  0  0  0  0  0  0
  -26.3504    3.2691   31.8174 C   0  0  0  0  0  0  0  0  0  0  0  0
  -26.8698    3.4622   30.9418 C   0  0  0  0  0  0  0  0  0  0  0  0
  -27.6534    4.2254   30.4134 C   0  0  0  0  0  0  0  0  0  0  0  0
  -28.0040    5.3519   31.2297 C   0  0  0  0  0  0  0  0  0  0  0  0
  -27.4368    5.4552   32.4293 C   0  0  0  0  0  0  0  0  0  0  0  0
  -26.5740    4.4913   32.8765 C   0  0  0  0  0  0  0  0  0  0  0  0
  -21.5269   -0.1422   29.0572 N   0  0  0  0  0  0  0  0  0  0  0  0
  -25.8548   -0.8180   27.7030 F   0  0  0  0  0  0  0  0  0  0  0  0
  -22.3662    1.8931   27.1006 C   0  0  0  0  0  0  0  0  0  0  0  0
  2  7  1  0
  7  8  1  0
  8  9  1  0
  8 11  1  0
 10 13  1  0
 12 13  1  0
  7 14  2  0
  4 15  1  0
 15 16  1  0
 16 17  1  0
 16 18  1  0
 17 19  1  0
 18 20  1  0
 20 21  1  0
 21 22  1  0
 17 28  2  0
  3 29  1  0
 19 30  1  0
  9 10  1  0
 12 11  1  0
 22 23  2  0
 23 24  1  0
 24 25  2  0
 25 26  1  0
 26 27  2  0
 27 22  1  0
  1  2  2  0
  2  5  1  0
  5  6  2  0
  6  4  1  0
  4  3  2  0
  3  1  1  0
M  END

$$$$
