No_2014-gen_results/8p0m/2024-11-27-11-27-31/
     RDKit          3D

 18 19  0  0  0  0  0  0  0  0999 V2000
  -28.0162   -0.8135   28.8779 C   0  0  0  0  0  0  0  0  0  0  0  0
  -27.0636   -0.1189   28.6079 C   0  0  0  0  0  0  0  0  0  0  0  0
  -25.7923   -0.4302   29.0761 C   0  0  0  0  0  0  0  0  0  0  0  0
  -25.5756   -1.5654   29.9363 C   0  0  0  0  0  0  0  0  0  0  0  0
  -26.7354   -2.3004   30.2173 C   0  0  0  0  0  0  0  0  0  0  0  0
  -27.9184   -1.9537   29.7629 C   0  0  0  0  0  0  0  0  0  0  0  0
  -27.1057    1.1023   27.7593 C   0  0  0  0  0  0  0  0  0  0  0  0
  -26.8548    2.1259   28.0082 N   0  0  0  0  0  0  0  0  0  0  0  0
  -27.5396    0.8200   26.4924 O   0  0  0  0  0  0  0  0  0  0  0  0
  -26.5547    3.1162   27.6007 C   0  0  0  0  0  0  0  0  0  0  0  0
  -25.2565    3.6449   27.4199 C   0  0  0  0  0  0  0  0  0  0  0  0
  -24.1340    3.0342   27.9123 C   0  0  0  0  0  0  0  0  0  0  0  0
  -23.0618    2.4571   27.1179 C   0  0  0  0  0  0  0  0  0  0  0  0
  -22.0979    1.6629   27.7414 C   0  0  0  0  0  0  0  0  0  0  0  0
  -22.3093    1.0983   29.0077 C   0  0  0  0  0  0  0  0  0  0  0  0
  -23.3478    1.6772   29.7790 C   0  0  0  0  0  0  0  0  0  0  0  0
  -24.2938    2.4749   29.2430 C   0  0  0  0  0  0  0  0  0  0  0  0
  -27.6615    3.9537   27.0870 C   0  0  0  0  0  0  0  0  0  0  0  0
  2  7  1  0
  7  8  1  0
  7  9  2  0
  8 10  2  3
 10 11  1  0
 10 18  1  0
 11 12  1  0
 12 13  2  0
 13 14  1  0
 14 15  2  0
 15 16  1  0
 16 17  2  0
 17 12  1  0
  1  2  2  0
  2  3  1  0
  3  4  2  0
  4  5  1  0
  5  6  2  0
  6  1  1  0
M  END

$$$$
