No_2311-gen_results/8p0m/2024-11-27-11-27-31/
     RDKit          3D

 19 19  0  0  0  0  0  0  0  0999 V2000
  -28.0162   -0.8135   28.8779 C   0  0  0  0  0  0  0  0  0  0  0  0
  -27.0636   -0.1190   28.6079 C   0  0  0  0  0  0  0  0  0  0  0  0
  -26.9287    1.1713   29.0083 C   0  0  0  0  0  0  0  0  0  0  0  0
  -27.9560    1.7411   29.7840 C   0  0  0  0  0  0  0  0  0  0  0  0
  -29.0569   -0.3271   29.7466 C   0  0  0  0  0  0  0  0  0  0  0  0
  -28.9828    0.9722   30.1516 C   0  0  0  0  0  0  0  0  0  0  0  0
  -25.8907   -0.6263   27.7857 C   0  0  0  0  0  0  0  0  0  0  0  0
  -25.4633    0.1123   26.6815 C   0  0  0  0  0  0  0  0  0  0  0  0
  -25.0310   -1.6701   28.2406 C   0  0  0  0  0  0  0  0  0  0  0  0
  -24.3963   -1.7192   29.4773 C   0  0  0  0  0  0  0  0  0  0  0  0
  -23.7186   -2.6927   29.8730 C   0  0  0  0  0  0  0  0  0  0  0  0
  -24.8852   -0.8794   30.5290 C   0  0  0  0  0  0  0  0  0  0  0  0
  -24.0666   -0.6194   31.7189 C   0  0  0  0  0  0  0  0  0  0  0  0
  -23.4384    0.4613   31.7920 C   0  0  0  0  0  0  0  0  0  0  0  0
  -26.1552   -0.0005   25.4459 C   0  0  0  0  0  0  0  0  0  0  0  0
  -24.8934    1.4164   26.7811 C   0  0  0  0  0  0  0  0  0  0  0  0
  -23.8628    1.8901   26.5281 C   0  0  0  0  0  0  0  0  0  0  0  0
  -23.2976    3.2148   26.7476 C   0  0  0  0  0  0  0  0  0  0  0  0
  -24.3472    4.1166   27.1422 C   0  0  0  0  0  0  0  0  0  0  0  0
  2  7  1  0
  7  8  1  0
  7  9  1  0
  9 10  1  0
 10 11  2  0
 10 12  1  0
 12 13  1  0
 13 14  1  0
  8 15  1  0
  8 16  1  0
 16 17  2  3
 17 18  1  0
 18 19  2  0
  1  2  2  0
  2  3  1  0
  3  4  2  0
  4  6  1  0
  6  5  2  0
  5  1  1  0
M  END

$$$$
