No_284-gen_results/8p0m/2024-11-27-11-27-31/
     RDKit          3D

 30 32  0  0  0  0  0  0  0  0999 V2000
  -28.0162   -0.8135   28.8779 C   0  0  0  0  0  0  0  0  0  0  0  0
  -27.0636   -0.1189   28.6079 C   0  0  0  0  0  0  0  0  0  0  0  0
  -26.9287    1.1713   29.0083 C   0  0  0  0  0  0  0  0  0  0  0  0
  -25.7702    2.0341   28.6884 C   0  0  0  0  0  0  0  0  0  0  0  0
  -24.7141    1.4431   27.9188 C   0  0  0  0  0  0  0  0  0  0  0  0
  -24.8590    0.0783   27.5836 C   0  0  0  0  0  0  0  0  0  0  0  0
  -25.9647   -0.6606   27.9164 C   0  0  0  0  0  0  0  0  0  0  0  0
  -29.2431   -0.1966   29.1279 C   0  0  0  0  0  0  0  0  0  0  0  0
  -29.2678    1.1397   29.5271 C   0  0  0  0  0  0  0  0  0  0  0  0
  -28.1277    1.9036   29.3342 C   0  0  0  0  0  0  0  0  0  0  0  0
  -23.4497    2.0972   27.6720 C   0  0  0  0  0  0  0  0  0  0  0  0
  -22.4858    1.7534   27.2558 O   0  0  0  0  0  0  0  0  0  0  0  0
  -23.5985    3.4879   27.8840 O   0  0  0  0  0  0  0  0  0  0  0  0
  -30.3356   -0.9727   29.4719 O   0  0  0  0  0  0  0  0  0  0  0  0
  -31.4341   -0.9488   28.5946 C   0  0  0  0  0  0  0  0  0  0  0  0
  -32.2098   -2.0842   28.7225 C   0  0  0  0  0  0  0  0  0  0  0  0
  -31.8290   -3.0597   29.1527 O   0  0  0  0  0  0  0  0  0  0  0  0
  -33.2859   -2.2006   27.7688 N   0  0  0  0  0  0  0  0  0  0  0  0
  -31.6517    0.0417   27.9200 O   0  0  0  0  0  0  0  0  0  0  0  0
  -34.0967   -3.3229   27.6235 C   0  0  0  0  0  0  0  0  0  0  0  0
  -28.1252    3.3460   29.6281 C   0  0  0  0  0  0  0  0  0  0  0  0
  -27.7745    3.7789   30.8522 C   0  0  0  0  0  0  0  0  0  0  0  0
  -27.9760    3.2333   31.9801 C   0  0  0  0  0  0  0  0  0  0  0  0
  -27.5234    3.7798   33.2322 C   0  0  0  0  0  0  0  0  0  0  0  0
  -26.7942    4.9630   33.2397 C   0  0  0  0  0  0  0  0  0  0  0  0
  -26.8217    4.9593   30.9275 C   0  0  0  0  0  0  0  0  0  0  0  0
  -26.4015    5.5399   32.0745 C   0  0  0  0  0  0  0  0  0  0  0  0
  -28.6939    4.1991   28.6371 C   0  0  0  0  0  0  0  0  0  0  0  0
  -29.2948    5.3728   28.9934 C   0  0  0  0  0  0  0  0  0  0  0  0
  -29.9385    6.1130   28.4150 C   0  0  0  0  0  0  0  0  0  0  0  0
  5 11  1  0
 11 12  2  0
 11 13  1  0
  8 14  1  0
 14 15  1  0
 15 16  1  0
 16 17  2  0
 16 18  1  0
 15 19  2  0
 18 20  1  0
 10 21  1  0
 21 22  1  0
 21 28  1  0
 28 29  2  3
 29 30  1  0
  3  4  1  0
  4  5  2  0
  5  6  1  0
  6  7  2  0
  7  2  1  0
  1  2  2  0
  2  3  1  0
  3 10  2  0
 10  9  1  0
  9  8  2  0
  8  1  1  0
 22 23  2  0
 23 24  1  0
 24 25  2  0
 25 27  1  0
 27 26  2  0
 26 22  1  0
M  END

$$$$
