No_2422-gen_results/8p0m/2024-11-27-11-27-31/
     RDKit          3D

 32 35  0  0  0  0  0  0  0  0999 V2000
  -28.0162   -0.8135   28.8779 C   0  0  0  0  0  0  0  0  0  0  0  0
  -27.0636   -0.1190   28.6079 C   0  0  0  0  0  0  0  0  0  0  0  0
  -26.9515    1.1286   28.9566 N   0  0  0  0  0  0  0  0  0  0  0  0
  -29.1088   -0.2102   29.6318 C   0  0  0  0  0  0  0  0  0  0  0  0
  -29.0881    1.0629   29.9416 C   0  0  0  0  0  0  0  0  0  0  0  0
  -27.9547    1.7679   29.5913 C   0  0  0  0  0  0  0  0  0  0  0  0
  -25.8498   -0.4485   27.9330 N   0  0  0  0  0  0  0  0  0  0  0  0
  -24.8447   -1.1394   28.5234 C   0  0  0  0  0  0  0  0  0  0  0  0
  -23.6213   -0.4400   28.7701 C   0  0  0  0  0  0  0  0  0  0  0  0
  -23.2258    0.7367   28.2434 C   0  0  0  0  0  0  0  0  0  0  0  0
  -22.1279    1.1838   28.1653 C   0  0  0  0  0  0  0  0  0  0  0  0
  -21.0103    0.4732   28.6773 C   0  0  0  0  0  0  0  0  0  0  0  0
  -21.2261   -0.8350   29.1607 C   0  0  0  0  0  0  0  0  0  0  0  0
  -22.5479   -1.2960   29.2062 C   0  0  0  0  0  0  0  0  0  0  0  0
  -25.1598   -2.1131   29.2881 O   0  0  0  0  0  0  0  0  0  0  0  0
  -30.1428   -1.0207   29.9489 F   0  0  0  0  0  0  0  0  0  0  0  0
  -27.8162    3.2311   29.9399 C   0  0  0  0  0  0  0  0  0  0  0  0
  -27.9436    4.2444   29.4975 C   0  0  0  0  0  0  0  0  0  0  0  0
  -28.5200    4.3530   28.1864 C   0  0  0  0  0  0  0  0  0  0  0  0
  -27.1452    3.2148   31.3846 C   0  0  0  0  0  0  0  0  0  0  0  0
  -26.8331    4.4490   31.7721 C   0  0  0  0  0  0  0  0  0  0  0  0
  -27.6227    5.5718   29.9936 C   0  0  0  0  0  0  0  0  0  0  0  0
  -27.0147    5.6585   31.2752 C   0  0  0  0  0  0  0  0  0  0  0  0
  -28.6016    5.2095   27.4447 O   0  0  0  0  0  0  0  0  0  0  0  0
  -29.0542    3.1435   27.7273 O   0  0  0  0  0  0  0  0  0  0  0  0
  -29.5929    3.0954   26.4389 C   0  0  0  0  0  0  0  0  0  0  0  0
  -29.9910    1.7648   26.2362 C   0  0  0  0  0  0  0  0  0  0  0  0
  -30.8403    1.1055   27.0789 C   0  0  0  0  0  0  0  0  0  0  0  0
  -31.8107    1.8064   27.6967 C   0  0  0  0  0  0  0  0  0  0  0  0
  -32.2161    2.9062   27.4334 C   0  0  0  0  0  0  0  0  0  0  0  0
  -31.6756    3.8698   26.6258 C   0  0  0  0  0  0  0  0  0  0  0  0
  -30.5745    4.1537   26.0667 C   0  0  0  0  0  0  0  0  0  0  0  0
  2  7  1  0
  7  8  1  0
  8  9  1  0
  8 15  2  0
  4 16  1  0
  6 17  1  0
 18 19  1  0
 19 24  2  0
 19 25  1  0
 25 26  1  0
 26 27  1  0
 27 28  2  0
 28 29  1  0
 29 30  2  0
 30 31  1  0
 26 32  1  0
 31 32  1  0
  1  2  2  0
  2  3  1  0
  3  6  2  0
  6  5  1  0
  5  4  2  0
  4  1  1  0
  9 10  2  0
 10 11  1  0
 11 12  2  0
 12 13  1  0
 13 14  2  0
 14  9  1  0
 17 18  2  0
 18 22  1  0
 22 23  2  0
 23 21  1  0
 21 20  2  0
 20 17  1  0
M  END

$$$$
