No_2987-gen_results/8p0m/2024-11-27-11-27-31/
     RDKit          3D

 20 22  0  0  0  0  0  0  0  0999 V2000
  -28.0162   -0.8135   28.8779 C   0  0  0  0  0  0  0  0  0  0  0  0
  -28.4690   -0.7850   29.8287 C   0  0  0  0  0  0  0  0  0  0  0  0
  -28.1816    0.4277   28.1134 C   0  0  0  0  0  0  0  0  0  0  0  0
  -28.9841    1.4155   28.5154 C   0  0  0  0  0  0  0  0  0  0  0  0
  -29.3802    0.1384   30.4612 C   0  0  0  0  0  0  0  0  0  0  0  0
  -29.5415    1.2736   29.7242 C   0  0  0  0  0  0  0  0  0  0  0  0
  -27.5429    0.6374   26.7442 C   0  0  0  0  0  0  0  0  0  0  0  0
  -28.1640    0.4479   25.6077 C   0  0  0  0  0  0  0  0  0  0  0  0
  -29.5657    0.2147   25.6759 C   0  0  0  0  0  0  0  0  0  0  0  0
  -30.1743   -0.0292   24.3542 C   0  0  0  0  0  0  0  0  0  0  0  0
  -31.5611   -0.3500   24.3407 C   0  0  0  0  0  0  0  0  0  0  0  0
  -32.3107   -0.3407   25.5039 C   0  0  0  0  0  0  0  0  0  0  0  0
  -31.6741   -0.0858   26.7285 C   0  0  0  0  0  0  0  0  0  0  0  0
  -30.3510    0.1498   26.8181 C   0  0  0  0  0  0  0  0  0  0  0  0
  -26.0795    0.7993   26.9093 C   0  0  0  0  0  0  0  0  0  0  0  0
  -25.2426    0.0136   27.5248 C   0  0  0  0  0  0  0  0  0  0  0  0
  -23.8894    0.3386   27.7059 C   0  0  0  0  0  0  0  0  0  0  0  0
  -23.3882    1.4473   27.0558 C   0  0  0  0  0  0  0  0  0  0  0  0
  -25.3451    2.0508   26.5244 C   0  0  0  0  0  0  0  0  0  0  0  0
  -24.1423    2.3556   26.5077 C   0  0  0  0  0  0  0  0  0  0  0  0
  3  7  1  0
  7  8  2  3
  8  9  1  0
  7 15  1  0
  9 10  2  0
 10 11  1  0
 11 12  2  0
 12 13  1  0
 13 14  2  0
 14  9  1  0
  1  2  2  0
  2  5  1  0
  5  6  2  0
  6  4  1  0
  4  3  2  0
  3  1  1  0
 15 16  2  0
 16 17  1  0
 17 18  2  0
 18 20  1  0
 20 19  2  0
 19 15  1  0
M  END

$$$$
