No_21-gen_results/8p0m/2024-11-27-11-27-31/
     RDKit          3D

 33 34  0  0  0  0  0  0  0  0999 V2000
  -27.9505   -0.5786   29.0402 P   0  0  0  0  0  0  0  0  0  0  0  0
  -27.2401    0.0613   28.4283 O   0  0  0  0  0  0  0  0  0  0  0  0
  -27.9314    0.0857   30.5132 O   0  0  0  0  0  0  0  0  0  0  0  0
  -29.2596   -0.9083   29.1458 O   0  0  0  0  0  0  0  0  0  0  0  0
  -27.1279   -1.9276   29.5866 O   0  0  0  0  0  0  0  0  0  0  0  0
  -27.5819    0.4759   27.0802 C   0  0  0  0  0  0  0  0  0  0  0  0
  -27.0616    1.7995   26.6569 C   0  0  0  0  0  0  0  0  0  0  0  0
  -27.6693    2.0654   25.5515 F   0  0  0  0  0  0  0  0  0  0  0  0
  -25.6925    1.7259   26.3276 F   0  0  0  0  0  0  0  0  0  0  0  0
  -27.2320    2.7887   27.5258 F   0  0  0  0  0  0  0  0  0  0  0  0
  -27.4788   -2.9786   30.2918 C   0  0  0  0  0  0  0  0  0  0  0  0
  -26.9051    0.6079   31.1112 C   0  0  0  0  0  0  0  0  0  0  0  0
  -26.7715    1.9858   31.0515 C   0  0  0  0  0  0  0  0  0  0  0  0
  -27.5465    2.8918   31.4658 C   0  0  0  0  0  0  0  0  0  0  0  0
  -27.3578    3.8939   31.8868 C   0  0  0  0  0  0  0  0  0  0  0  0
  -25.4285    2.5264   30.4920 C   0  0  0  0  0  0  0  0  0  0  0  0
  -24.3197    1.6624   29.9989 C   0  0  0  0  0  0  0  0  0  0  0  0
  -23.7976    0.7616   30.8390 C   0  0  0  0  0  0  0  0  0  0  0  0
  -24.2299    0.0396   31.6174 C   0  0  0  0  0  0  0  0  0  0  0  0
  -25.7942   -0.2678   31.7705 C   0  0  0  0  0  0  0  0  0  0  0  0
  -28.3390    4.9329   32.3291 C   0  0  0  0  0  0  0  0  0  0  0  0
  -29.6116    4.6251   32.1260 C   0  0  0  0  0  0  0  0  0  0  0  0
  -29.9859    3.3807   31.6111 C   0  0  0  0  0  0  0  0  0  0  0  0
  -28.9964    2.5644   31.2375 C   0  0  0  0  0  0  0  0  0  0  0  0
  -23.9763    1.8672   28.6336 C   0  0  0  0  0  0  0  0  0  0  0  0
  -22.8690    1.1536   28.1469 C   0  0  0  0  0  0  0  0  0  0  0  0
  -22.3280    0.2318   28.6320 O   0  0  0  0  0  0  0  0  0  0  0  0
  -22.5042    1.5315   26.8978 O   0  0  0  0  0  0  0  0  0  0  0  0
  -27.0527   -4.2563   29.7343 C   0  0  0  0  0  0  0  0  0  0  0  0
  -25.9858   -4.3121   29.1355 O   0  0  0  0  0  0  0  0  0  0  0  0
  -25.1729   -3.2163   29.1853 C   0  0  0  0  0  0  0  0  0  0  0  0
  -25.3008   -2.2908   28.8109 C   0  0  0  0  0  0  0  0  0  0  0  0
  -25.4134   -1.9738   27.5623 O   0  0  0  0  0  0  0  0  0  0  0  0
  1  2  1  0
  1  3  1  0
  1  4  2  0
  1  5  1  0
  2  6  1  0
  6  7  1  0
  7  8  1  0
  7  9  1  0
  7 10  1  0
  5 11  1  0
  3 12  1  0
 12 13  1  0
 13 14  1  0
 13 16  1  0
 16 17  1  0
 17 18  1  0
 18 19  2  0
 12 20  1  0
 19 20  1  0
 17 25  1  0
 25 26  1  0
 26 27  2  0
 26 28  1  0
 11 29  1  0
 29 30  1  0
 30 31  1  0
 31 32  2  3
 32 33  1  0
 14 15  2  0
 15 21  1  0
 21 22  2  0
 22 23  1  0
 23 24  2  0
 24 14  1  0
M  END

$$$$
