No_2040-gen_results/8p0m/2024-11-27-11-27-31/
     RDKit          3D

 35 37  0  0  0  0  0  0  0  0999 V2000
  -28.0162   -0.8135   28.8779 C   0  0  0  0  0  0  0  0  0  0  0  0
  -28.4690   -0.7850   29.8287 C   0  0  0  0  0  0  0  0  0  0  0  0
  -26.5455   -0.8762   28.8500 C   0  0  0  0  0  0  0  0  0  0  0  0
  -25.8041   -1.0324   30.0571 C   0  0  0  0  0  0  0  0  0  0  0  0
  -27.9437   -0.9869   31.2075 C   0  0  0  0  0  0  0  0  0  0  0  0
  -26.5825   -1.0386   31.2231 C   0  0  0  0  0  0  0  0  0  0  0  0
  -24.3810   -1.1082   30.0855 C   0  0  0  0  0  0  0  0  0  0  0  0
  -23.7590   -1.1322   30.8961 C   0  0  0  0  0  0  0  0  0  0  0  0
  -22.5719   -0.6219   31.2266 C   0  0  0  0  0  0  0  0  0  0  0  0
  -21.7640   -0.3495   30.0503 C   0  0  0  0  0  0  0  0  0  0  0  0
  -22.4327   -0.3136   28.7942 C   0  0  0  0  0  0  0  0  0  0  0  0
  -23.8234   -0.6799   28.7736 C   0  0  0  0  0  0  0  0  0  0  0  0
  -30.0825   -0.6745   29.8712 C   0  0  0  0  0  0  0  0  0  0  0  0
  -30.7739   -1.4700   30.3386 O   0  0  0  0  0  0  0  0  0  0  0  0
  -30.5410    0.3598   29.2520 O   0  0  0  0  0  0  0  0  0  0  0  0
  -31.7885    0.4659   28.7546 C   0  0  0  0  0  0  0  0  0  0  0  0
  -31.9178    1.6126   27.9260 C   0  0  0  0  0  0  0  0  0  0  0  0
  -32.9164    1.6445   27.2694 F   0  0  0  0  0  0  0  0  0  0  0  0
  -30.8493    1.6981   27.0205 F   0  0  0  0  0  0  0  0  0  0  0  0
  -31.8774    2.7524   28.6795 F   0  0  0  0  0  0  0  0  0  0  0  0
  -32.1429   -0.7347   28.0557 N   0  0  0  0  0  0  0  0  0  0  0  0
  -32.9604   -1.6365   28.5855 C   0  0  0  0  0  0  0  0  0  0  0  0
  -33.1545   -2.7676   27.6861 C   0  0  0  0  0  0  0  0  0  0  0  0
  -33.7507   -2.6047   26.6230 C   0  0  0  0  0  0  0  0  0  0  0  0
  -33.8267   -3.6456   25.5685 C   0  0  0  0  0  0  0  0  0  0  0  0
  -33.2140   -4.8977   25.8710 C   0  0  0  0  0  0  0  0  0  0  0  0
  -32.5051   -5.0843   27.0291 C   0  0  0  0  0  0  0  0  0  0  0  0
  -32.3955   -3.9654   27.9517 C   0  0  0  0  0  0  0  0  0  0  0  0
  -31.8012   -6.3554   27.2685 C   0  0  0  0  0  0  0  0  0  0  0  0
  -32.4936   -7.1221   27.9977 F   0  0  0  0  0  0  0  0  0  0  0  0
  -30.6402   -6.0006   27.9855 F   0  0  0  0  0  0  0  0  0  0  0  0
  -31.3367   -6.9019   26.1523 F   0  0  0  0  0  0  0  0  0  0  0  0
  -25.9260   -0.7845   27.7169 F   0  0  0  0  0  0  0  0  0  0  0  0
  -31.5320   -0.9370   26.8153 C   0  0  0  0  0  0  0  0  0  0  0  0
  -34.3166   -1.1338   29.0181 C   0  0  0  0  0  0  0  0  0  0  0  0
  4  7  1  0
  2 13  1  0
 13 14  2  0
 13 15  1  0
 15 16  1  0
 16 17  1  0
 17 18  1  0
 17 19  1  0
 17 20  1  0
 16 21  1  0
 21 22  1  0
 27 29  1  0
 29 30  1  0
 29 31  1  0
 29 32  1  0
  3 33  1  0
 21 34  1  0
 22 35  1  0
 22 23  1  0
 23 24  2  0
 24 25  1  0
 25 26  2  0
 26 27  1  0
 27 28  2  0
 28 23  1  0
  1  2  2  0
  2  5  1  0
  5  6  2  0
  6  4  1  0
  4  3  2  0
  3  1  1  0
  7  8  2  0
  8  9  1  0
  9 10  2  0
 10 11  1  0
 11 12  2  0
 12  7  1  0
M  END

$$$$
