No_2568-gen_results/8p0m/2024-11-27-11-27-31/
     RDKit          3D

 15 16  0  0  0  0  0  0  0  0999 V2000
  -28.0162   -0.8135   28.8779 C   0  0  0  0  0  0  0  0  0  0  0  0
  -28.4690   -0.7850   29.8287 C   0  0  0  0  0  0  0  0  0  0  0  0
  -26.5042   -0.7777   28.8766 C   0  0  0  0  0  0  0  0  0  0  0  0
  -25.7622   -0.0022   27.9705 C   0  0  0  0  0  0  0  0  0  0  0  0
  -26.0931    0.6131   27.0948 C   0  0  0  0  0  0  0  0  0  0  0  0
  -25.2924    1.2851   26.1396 C   0  0  0  0  0  0  0  0  0  0  0  0
  -23.9069    1.3541   26.4095 C   0  0  0  0  0  0  0  0  0  0  0  0
  -23.5029    1.1518   27.6298 C   0  0  0  0  0  0  0  0  0  0  0  0
  -24.3015    0.3112   28.4852 C   0  0  0  0  0  0  0  0  0  0  0  0
  -28.0764   -1.5527   31.0556 C   0  0  0  0  0  0  0  0  0  0  0  0
  -26.6819   -1.7877   31.0562 C   0  0  0  0  0  0  0  0  0  0  0  0
  -25.9031   -1.4167   30.0621 C   0  0  0  0  0  0  0  0  0  0  0  0
  -22.0859    1.4441   28.0095 C   0  0  0  0  0  0  0  0  0  0  0  0
  -21.2276    1.8161   27.2424 O   0  0  0  0  0  0  0  0  0  0  0  0
  -21.7138    0.8801   29.2625 O   0  0  0  0  0  0  0  0  0  0  0  0
  3  4  1  0
  8 13  1  0
 13 14  2  0
 13 15  1  0
  1  2  2  0
  2 10  1  0
 10 11  2  0
 11 12  1  0
 12  3  2  0
  3  1  1  0
  4  5  2  0
  5  6  1  0
  6  7  2  0
  7  8  1  0
  8  9  2  0
  9  4  1  0
M  END

$$$$
