No_207-gen_results/8p0m/2024-11-27-11-27-31/
     RDKit          3D

 17 17  0  0  0  0  0  0  0  0999 V2000
  -28.0162   -0.8135   28.8779 C   0  0  0  0  0  0  0  0  0  0  0  0
  -27.0636   -0.1189   28.6079 C   0  0  0  0  0  0  0  0  0  0  0  0
  -27.0010    0.6913   27.4910 C   0  0  0  0  0  0  0  0  0  0  0  0
  -28.1373    0.7363   26.6350 C   0  0  0  0  0  0  0  0  0  0  0  0
  -29.2360    0.0765   27.0690 C   0  0  0  0  0  0  0  0  0  0  0  0
  -29.2177   -0.6429   28.1747 C   0  0  0  0  0  0  0  0  0  0  0  0
  -28.0030   -1.6604   30.1266 C   0  0  0  0  0  0  0  0  0  0  0  0
  -28.8384   -1.7910   30.8109 F   0  0  0  0  0  0  0  0  0  0  0  0
  -26.8325   -1.3961   30.8701 F   0  0  0  0  0  0  0  0  0  0  0  0
  -27.4891   -2.9462   29.6007 F   0  0  0  0  0  0  0  0  0  0  0  0
  -30.5368    0.1379   26.3834 C   0  0  0  0  0  0  0  0  0  0  0  0
  -31.3480    0.9414   26.6526 O   0  0  0  0  0  0  0  0  0  0  0  0
  -30.7069   -0.7459   25.3920 O   0  0  0  0  0  0  0  0  0  0  0  0
  -25.9108    1.5347   27.0113 C   0  0  0  0  0  0  0  0  0  0  0  0
  -25.4117    1.1513   26.0246 F   0  0  0  0  0  0  0  0  0  0  0  0
  -26.2293    2.8496   26.9954 F   0  0  0  0  0  0  0  0  0  0  0  0
  -24.9824    1.4322   28.0887 F   0  0  0  0  0  0  0  0  0  0  0  0
  1  7  1  0
  7  8  1  0
  7  9  1  0
  7 10  1  0
  5 11  1  0
 11 12  2  0
 11 13  1  0
  3 14  1  0
 14 15  1  0
 14 16  1  0
 14 17  1  0
  1  2  2  0
  2  3  1  0
  3  4  2  0
  4  5  1  0
  5  6  2  0
  6  1  1  0
M  END

$$$$
