No_2335-gen_results/8p0m/2024-11-27-11-27-31/
     RDKit          3D

 33 35  0  0  0  0  0  0  0  0999 V2000
  -28.0162   -0.8135   28.8779 C   0  0  0  0  0  0  0  0  0  0  0  0
  -27.0636   -0.1190   28.6079 C   0  0  0  0  0  0  0  0  0  0  0  0
  -26.8756    1.1325   28.9134 C   0  0  0  0  0  0  0  0  0  0  0  0
  -27.9014    1.8066   29.6436 C   0  0  0  0  0  0  0  0  0  0  0  0
  -29.0458   -0.2316   29.7181 C   0  0  0  0  0  0  0  0  0  0  0  0
  -28.9402    1.0517   30.0597 C   0  0  0  0  0  0  0  0  0  0  0  0
  -25.8732   -0.7125   27.8045 C   0  0  0  0  0  0  0  0  0  0  0  0
  -24.9425   -1.9906   28.4400 Br  0  0  0  0  0  0  0  0  0  0  0  0
  -24.9607    0.2791   27.1537 C   0  0  0  0  0  0  0  0  0  0  0  0
  -24.9724    0.7309   26.1432 C   0  0  0  0  0  0  0  0  0  0  0  0
  -24.0219    1.7287   25.5725 C   0  0  0  0  0  0  0  0  0  0  0  0
  -23.0558    2.1559   26.5267 C   0  0  0  0  0  0  0  0  0  0  0  0
  -23.0818    1.6660   27.8491 C   0  0  0  0  0  0  0  0  0  0  0  0
  -24.0299    0.8010   28.2709 C   0  0  0  0  0  0  0  0  0  0  0  0
  -27.7315    3.2477   30.0355 C   0  0  0  0  0  0  0  0  0  0  0  0
  -27.8934    3.7864   30.9260 O   0  0  0  0  0  0  0  0  0  0  0  0
  -27.0579    3.8458   29.0022 O   0  0  0  0  0  0  0  0  0  0  0  0
  -30.2275   -1.0516   30.0957 C   0  0  0  0  0  0  0  0  0  0  0  0
  -31.0597   -1.1371   29.4941 O   0  0  0  0  0  0  0  0  0  0  0  0
  -30.0418   -1.7201   31.3305 N   0  0  0  0  0  0  0  0  0  0  0  0
  -28.9118   -1.6769   32.2737 C   0  0  0  0  0  0  0  0  0  0  0  0
  -31.1779   -2.5329   31.7989 C   0  0  0  0  0  0  0  0  0  0  0  0
  -25.8857    0.3468   25.0372 C   0  0  0  0  0  0  0  0  0  0  0  0
  -27.1991    0.3667   24.9247 N   0  0  0  0  0  0  0  0  0  0  0  0
  -27.8561   -0.1834   24.0591 C   0  0  0  0  0  0  0  0  0  0  0  0
  -29.2459    0.1973   24.0312 C   0  0  0  0  0  0  0  0  0  0  0  0
  -29.3792    1.1474   25.0727 C   0  0  0  0  0  0  0  0  0  0  0  0
  -28.5919    1.5804   25.8777 C   0  0  0  0  0  0  0  0  0  0  0  0
  -27.5316    1.4409   25.9074 C   0  0  0  0  0  0  0  0  0  0  0  0
  -31.0675    1.3867   25.0975 C   0  0  0  0  0  0  0  0  0  0  0  0
  -31.5419    2.3638   25.7750 N   0  0  0  0  0  0  0  0  0  0  0  0
  -30.9881    3.2931   26.1121 C   0  0  0  0  0  0  0  0  0  0  0  0
  -29.6990    3.5750   26.7678 C   0  0  0  0  0  0  0  0  0  0  0  0
  2  7  1  0
  7  8  1  0
  7  9  1  0
  4 15  1  0
 15 16  2  0
 15 17  1  0
  5 18  1  0
 18 19  2  0
 18 20  1  0
 20 21  1  0
 20 22  1  0
 10 23  1  0
 23 24  1  0
 24 25  1  0
 26 27  1  0
 24 29  1  0
 28 29  1  0
 27 30  1  0
 30 31  1  0
 31 32  2  3
 32 33  1  0
 25 26  1  0
 27 28  1  0
  1  2  2  0
  2  3  1  0
  3  4  2  0
  4  6  1  0
  6  5  2  0
  5  1  1  0
  9 10  1  0
 10 11  2  0
 11 12  1  0
 12 13  2  0
 13 14  1  0
 14  9  2  0
M  END

$$$$
