No_2234-gen_results/8p0m/2024-11-27-11-27-31/
     RDKit          3D

 13 13  0  0  0  0  0  0  0  0999 V2000
  -28.0162   -0.8135   28.8779 C   0  0  0  0  0  0  0  0  0  0  0  0
  -27.0636   -0.1189   28.6079 C   0  0  0  0  0  0  0  0  0  0  0  0
  -27.0010    0.6913   27.4910 C   0  0  0  0  0  0  0  0  0  0  0  0
  -28.1373    0.7363   26.6350 C   0  0  0  0  0  0  0  0  0  0  0  0
  -29.2360    0.0765   27.0690 C   0  0  0  0  0  0  0  0  0  0  0  0
  -29.2177   -0.6429   28.1747 C   0  0  0  0  0  0  0  0  0  0  0  0
  -30.4152    0.1590   26.1820 C   0  0  0  0  0  0  0  0  0  0  0  0
  -30.3473    0.0801   24.9534 N   0  0  0  0  0  0  0  0  0  0  0  0
  -31.7261    0.1350   26.7970 C   0  0  0  0  0  0  0  0  0  0  0  0
  -25.5167   -0.2310   29.5437 Cl  0  0  0  0  0  0  0  0  0  0  0  0
  -31.9601    0.2800   27.9945 N   0  0  0  0  0  0  0  0  0  0  0  0
  -32.6503    0.5080   28.7179 C   0  0  0  0  0  0  0  0  0  0  0  0
  -32.6034    0.5791   30.2043 C   0  0  0  0  0  0  0  0  0  0  0  0
  5  7  1  0
  7  8  1  0
  7  9  1  0
  2 10  1  0
  9 11  1  0
 11 12  1  0
 12 13  2  0
  1  2  2  0
  2  3  1  0
  3  4  2  0
  4  5  1  0
  5  6  2  0
  6  1  1  0
M  END

$$$$
