No_2446-gen_results/8p0m/2024-11-27-11-27-31/
     RDKit          3D

 32 35  0  0  0  0  0  0  0  0999 V2000
  -28.1229   -1.3353   28.4874 O   0  0  0  0  0  0  0  0  0  0  0  0
  -27.0637   -0.8242   28.8687 C   0  0  0  0  0  0  0  0  0  0  0  0
  -26.4446   -0.0097   28.8266 N   0  0  0  0  0  0  0  0  0  0  0  0
  -26.3514   -1.9045   29.8953 C   0  0  0  0  0  0  0  0  0  0  0  0
  -26.9151    1.1844   28.0473 C   0  0  0  0  0  0  0  0  0  0  0  0
  -26.0226    1.7947   27.2860 C   0  0  0  0  0  0  0  0  0  0  0  0
  -24.5713    1.7012   27.5585 C   0  0  0  0  0  0  0  0  0  0  0  0
  -24.2137    0.7004   28.4983 C   0  0  0  0  0  0  0  0  0  0  0  0
  -25.0839   -0.1200   28.9956 C   0  0  0  0  0  0  0  0  0  0  0  0
  -24.7799   -1.3158   29.7237 C   0  0  0  0  0  0  0  0  0  0  0  0
  -22.6766    0.5354   28.7190 C   0  0  0  0  0  0  0  0  0  0  0  0
  -21.8438    1.3057   28.0331 N   0  0  0  0  0  0  0  0  0  0  0  0
  -22.2702   -0.0372   29.8155 N   0  0  0  0  0  0  0  0  0  0  0  0
  -27.4519    2.1218   29.1313 C   0  0  0  0  0  0  0  0  0  0  0  0
  -27.0788    2.4710   30.0919 C   0  0  0  0  0  0  0  0  0  0  0  0
  -27.5706    3.4540   31.0603 C   0  0  0  0  0  0  0  0  0  0  0  0
  -28.8035    3.9454   30.7710 C   0  0  0  0  0  0  0  0  0  0  0  0
  -28.8322    2.7085   28.7829 C   0  0  0  0  0  0  0  0  0  0  0  0
  -29.4519    3.5618   29.6331 C   0  0  0  0  0  0  0  0  0  0  0  0
  -26.4276   -3.2718   29.6421 N   0  0  0  0  0  0  0  0  0  0  0  0
  -25.4736   -3.9762   29.1386 C   0  0  0  0  0  0  0  0  0  0  0  0
  -25.7096   -5.4234   29.1528 C   0  0  0  0  0  0  0  0  0  0  0  0
  -27.6078   -3.8822   30.1187 C   0  0  0  0  0  0  0  0  0  0  0  0
  -24.3133   -3.5619   28.4452 C   0  0  0  0  0  0  0  0  0  0  0  0
  -27.8319   -4.9370   30.4351 O   0  0  0  0  0  0  0  0  0  0  0  0
  -28.6320   -3.0188   30.5704 O   0  0  0  0  0  0  0  0  0  0  0  0
  -24.5232   -6.2067   28.6966 C   0  0  0  0  0  0  0  0  0  0  0  0
  -23.4193   -5.6160   28.1166 C   0  0  0  0  0  0  0  0  0  0  0  0
  -23.3293   -4.2342   28.0911 C   0  0  0  0  0  0  0  0  0  0  0  0
  -30.7850    4.0768   29.2755 C   0  0  0  0  0  0  0  0  0  0  0  0
  -31.4518    3.8393   28.5540 N   0  0  0  0  0  0  0  0  0  0  0  0
  -32.7029    4.4275   28.3235 C   0  0  0  0  0  0  0  0  0  0  0  0
  1  2  2  0
  2  3  1  0
  2  4  1  0
  3  5  1  0
  6  7  1  0
  3  9  1  0
  8  9  1  0
  4 10  1  0
  9 10  1  0
  8 11  1  0
 11 12  1  0
 11 13  2  0
  5 14  1  0
  4 20  1  0
 20 21  1  0
 20 23  1  0
 23 25  2  0
 23 26  1  0
 19 30  1  0
 30 31  2  3
 31 32  1  0
  5  6  1  0
  7  8  1  0
 14 15  2  0
 15 16  1  0
 16 17  2  0
 17 19  1  0
 19 18  2  0
 18 14  1  0
 21 22  2  0
 22 27  1  0
 27 28  2  0
 28 29  1  0
 29 24  2  0
 24 21  1  0
M  END

$$$$
