No_248-gen_results/8p0m/2024-11-27-11-27-31/
     RDKit          3D

 18 19  0  0  0  0  0  0  0  0999 V2000
  -28.1229   -1.3353   28.4874 O   0  0  0  0  0  0  0  0  0  0  0  0
  -27.4806   -0.4044   28.7094 C   0  0  0  0  0  0  0  0  0  0  0  0
  -26.3804   -0.0867   27.9394 C   0  0  0  0  0  0  0  0  0  0  0  0
  -27.6664    0.4468   29.8988 N   0  0  0  0  0  0  0  0  0  0  0  0
  -25.1773   -0.4388   28.3946 C   0  0  0  0  0  0  0  0  0  0  0  0
  -26.5259    0.6036   26.6867 C   0  0  0  0  0  0  0  0  0  0  0  0
  -24.1813    0.0892   28.4567 C   0  0  0  0  0  0  0  0  0  0  0  0
  -23.9872    1.0892   27.2460 C   0  0  0  0  0  0  0  0  0  0  0  0
  -25.1328    1.3551   26.4950 C   0  0  0  0  0  0  0  0  0  0  0  0
  -28.7832    0.1177   30.7689 C   0  0  0  0  0  0  0  0  0  0  0  0
  -22.7537    1.8310   27.0165 C   0  0  0  0  0  0  0  0  0  0  0  0
  -21.9060    1.9513   28.0765 N   0  0  0  0  0  0  0  0  0  0  0  0
  -22.4705    2.2669   25.8465 N   0  0  0  0  0  0  0  0  0  0  0  0
  -29.5221    0.9329   30.9969 C   0  0  0  0  0  0  0  0  0  0  0  0
  -30.5435    0.8347   32.0761 C   0  0  0  0  0  0  0  0  0  0  0  0
  -30.6260   -0.4238   32.7260 C   0  0  0  0  0  0  0  0  0  0  0  0
  -29.6978   -1.4185   32.3925 C   0  0  0  0  0  0  0  0  0  0  0  0
  -28.6692   -1.1659   31.4883 C   0  0  0  0  0  0  0  0  0  0  0  0
  1  2  2  0
  2  3  1  0
  2  4  1  0
  4 10  1  0
  8 11  1  0
 11 12  2  0
 11 13  1  0
  3  5  2  0
  5  7  1  0
  7  8  2  0
  8  9  1  0
  9  6  2  0
  6  3  1  0
 10 14  2  0
 14 15  1  0
 15 16  2  0
 16 17  1  0
 17 18  2  0
 18 10  1  0
M  END

$$$$
