No_2124-gen_results/8p0m/2024-11-27-11-27-31/
     RDKit          3D

 27 28  0  0  0  0  0  0  0  0999 V2000
  -28.1493   -0.8198   28.9079 Cl  0  0  0  0  0  0  0  0  0  0  0  0
  -28.5324   -0.0471   29.7727 C   0  0  0  0  0  0  0  0  0  0  0  0
  -29.7006    0.0350   30.2420 C   0  0  0  0  0  0  0  0  0  0  0  0
  -27.4574    0.8974   30.3816 C   0  0  0  0  0  0  0  0  0  0  0  0
  -27.8536    1.8525   31.4456 C   0  0  0  0  0  0  0  0  0  0  0  0
  -30.0732    1.0428   31.3373 C   0  0  0  0  0  0  0  0  0  0  0  0
  -29.1164    1.8739   31.8737 C   0  0  0  0  0  0  0  0  0  0  0  0
  -26.0953    0.8823   29.9974 C   0  0  0  0  0  0  0  0  0  0  0  0
  -25.8025    1.2846   28.8013 C   0  0  0  0  0  0  0  0  0  0  0  0
  -25.5678    2.1855   28.2411 C   0  0  0  0  0  0  0  0  0  0  0  0
  -25.0303    2.4899   26.8783 C   0  0  0  0  0  0  0  0  0  0  0  0
  -24.7442    1.3740   26.1316 C   0  0  0  0  0  0  0  0  0  0  0  0
  -24.9800    0.1593   26.6758 C   0  0  0  0  0  0  0  0  0  0  0  0
  -25.4801    0.0081   27.9482 C   0  0  0  0  0  0  0  0  0  0  0  0
  -25.1463    0.4727   30.9982 C   0  0  0  0  0  0  0  0  0  0  0  0
  -25.7723    3.6536   28.9701 C   0  0  0  0  0  0  0  0  0  0  0  0
  -25.4885    3.7974   30.0562 O   0  0  0  0  0  0  0  0  0  0  0  0
  -26.3730    4.6503   28.2155 N   0  0  0  0  0  0  0  0  0  0  0  0
  -26.5388    5.9703   28.8023 C   0  0  0  0  0  0  0  0  0  0  0  0
  -29.5007    2.8802   32.8943 C   0  0  0  0  0  0  0  0  0  0  0  0
  -30.3867    2.7813   33.5865 O   0  0  0  0  0  0  0  0  0  0  0  0
  -28.6998    3.9794   32.8917 O   0  0  0  0  0  0  0  0  0  0  0  0
  -27.1159    6.8070   28.0662 C   0  0  0  0  0  0  0  0  0  0  0  0
  -28.3123    6.9362   27.9227 C   0  0  0  0  0  0  0  0  0  0  0  0
  -28.9648    7.8569   26.9431 C   0  0  0  0  0  0  0  0  0  0  0  0
  -28.0921    8.7744   26.2466 C   0  0  0  0  0  0  0  0  0  0  0  0
  -26.7239    8.6902   26.3957 C   0  0  0  0  0  0  0  0  0  0  0  0
  1  2  1  0
  4  8  1  0
  8  9  1  0
  8 15  1  0
 10 16  1  0
 16 17  2  0
 16 18  1  0
 18 19  1  0
  7 20  1  0
 20 21  2  0
 20 22  1  0
 19 23  2  3
 23 24  1  0
 24 25  2  3
 25 26  1  0
 26 27  2  0
  2  3  2  0
  3  6  1  0
  6  7  2  0
  7  5  1  0
  5  4  2  0
  4  2  1  0
  9 10  2  0
 10 11  1  0
 11 12  2  0
 12 13  1  0
 13 14  2  0
 14  9  1  0
M  END

$$$$
