No_2043-gen_results/8p0m/2024-11-27-11-27-31/
     RDKit          3D

 35 39  0  0  0  0  0  0  0  0999 V2000
  -28.0162   -0.8135   28.8779 C   0  0  0  0  0  0  0  0  0  0  0  0
  -27.0636   -0.1190   28.6079 C   0  0  0  0  0  0  0  0  0  0  0  0
  -26.9716    0.7139   27.5060 C   0  0  0  0  0  0  0  0  0  0  0  0
  -28.1053    0.7744   26.6421 C   0  0  0  0  0  0  0  0  0  0  0  0
  -29.2008    0.1044   27.0527 C   0  0  0  0  0  0  0  0  0  0  0  0
  -29.2096   -0.6029   28.1853 C   0  0  0  0  0  0  0  0  0  0  0  0
  -30.3749    0.2232   26.1670 C   0  0  0  0  0  0  0  0  0  0  0  0
  -30.9604    1.2364   26.1300 O   0  0  0  0  0  0  0  0  0  0  0  0
  -30.7201   -0.8553   25.5235 O   0  0  0  0  0  0  0  0  0  0  0  0
  -25.6953   -0.2130   29.4296 C   0  0  0  0  0  0  0  0  0  0  0  0
  -24.5409    0.1131   28.9334 C   0  0  0  0  0  0  0  0  0  0  0  0
  -23.3145    0.0172   29.6429 C   0  0  0  0  0  0  0  0  0  0  0  0
  -23.3663   -0.6397   30.8844 C   0  0  0  0  0  0  0  0  0  0  0  0
  -24.5845   -1.0064   31.4602 C   0  0  0  0  0  0  0  0  0  0  0  0
  -25.7686   -0.8718   30.7100 C   0  0  0  0  0  0  0  0  0  0  0  0
  -22.1798    0.4077   29.1097 O   0  0  0  0  0  0  0  0  0  0  0  0
  -22.0902    1.3232   28.1348 C   0  0  0  0  0  0  0  0  0  0  0  0
  -23.0020    1.4043   27.1335 C   0  0  0  0  0  0  0  0  0  0  0  0
  -24.3841    1.0461   27.6444 C   0  0  0  0  0  0  0  0  0  0  0  0
  -25.6103    1.1856   26.8910 C   0  0  0  0  0  0  0  0  0  0  0  0
  -25.5439    1.5062   25.6836 O   0  0  0  0  0  0  0  0  0  0  0  0
  -20.7646    1.5076   27.7267 O   0  0  0  0  0  0  0  0  0  0  0  0
  -30.3432   -1.1745   28.5800 O   0  0  0  0  0  0  0  0  0  0  0  0
  -30.3930   -1.7120   29.8667 C   0  0  0  0  0  0  0  0  0  0  0  0
  -30.6455   -0.9153   30.8728 C   0  0  0  0  0  0  0  0  0  0  0  0
  -31.2631    0.2864   30.6428 C   0  0  0  0  0  0  0  0  0  0  0  0
  -32.3550    0.1985   30.1607 F   0  0  0  0  0  0  0  0  0  0  0  0
  -30.5195    1.1359   29.8621 F   0  0  0  0  0  0  0  0  0  0  0  0
  -31.0660    1.1663   31.5288 F   0  0  0  0  0  0  0  0  0  0  0  0
  -31.3340   -1.6001   32.0054 N   0  0  0  0  0  0  0  0  0  0  0  0
  -32.3499   -2.0122   32.1514 C   0  0  0  0  0  0  0  0  0  0  0  0
  -32.7823   -2.5786   33.3502 C   0  0  0  0  0  0  0  0  0  0  0  0
  -30.4120   -1.7128   33.2834 C   0  0  0  0  0  0  0  0  0  0  0  0
  -30.7624   -2.2207   34.3798 C   0  0  0  0  0  0  0  0  0  0  0  0
  -32.0411   -2.6964   34.4643 C   0  0  0  0  0  0  0  0  0  0  0  0
  5  7  1  0
  7  8  1  0
  7  9  2  0
  2 10  1  0
 12 16  1  0
 16 17  1  0
 17 18  1  0
 11 19  1  0
 18 19  2  0
  3 20  1  0
 19 20  1  0
 20 21  2  0
 17 22  2  0
  6 23  1  0
 23 24  1  0
 24 25  1  0
 25 26  1  0
 26 27  1  0
 26 28  1  0
 26 29  1  0
 25 30  1  0
 30 31  1  0
 30 33  1  0
 32 35  1  0
 34 35  1  0
 31 32  1  0
 34 33  1  0
  1  2  2  0
  2  3  1  0
  3  4  2  0
  4  5  1  0
  5  6  2  0
  6  1  1  0
 10 15  2  0
 15 14  1  0
 14 13  2  0
 13 12  1  0
 12 11  2  0
 11 10  1  0
M  END

$$$$
