No_2168-gen_results/8p0m/2024-11-27-11-27-31/
     RDKit          3D

 22 24  0  0  0  0  0  0  0  0999 V2000
  -28.0162   -0.8135   28.8779 C   0  0  0  0  0  0  0  0  0  0  0  0
  -28.4690   -0.7850   29.8287 C   0  0  0  0  0  0  0  0  0  0  0  0
  -26.5042   -0.7777   28.8766 C   0  0  0  0  0  0  0  0  0  0  0  0
  -25.8103   -0.8531   30.1028 C   0  0  0  0  0  0  0  0  0  0  0  0
  -27.9906   -0.8916   31.2257 C   0  0  0  0  0  0  0  0  0  0  0  0
  -26.6042   -0.8676   31.2652 C   0  0  0  0  0  0  0  0  0  0  0  0
  -29.9765   -0.8288   29.8497 N   0  0  0  0  0  0  0  0  0  0  0  0
  -30.5795   -0.1232   28.9820 C   0  0  0  0  0  0  0  0  0  0  0  0
  -31.8655   -0.6748   28.4847 C   0  0  0  0  0  0  0  0  0  0  0  0
  -30.1816    0.9133   28.4829 O   0  0  0  0  0  0  0  0  0  0  0  0
  -32.7320    0.2793   28.5319 F   0  0  0  0  0  0  0  0  0  0  0  0
  -32.2037   -1.6751   29.2532 F   0  0  0  0  0  0  0  0  0  0  0  0
  -32.0744   -0.9998   27.2004 F   0  0  0  0  0  0  0  0  0  0  0  0
  -24.3818   -0.8144   30.1397 C   0  0  0  0  0  0  0  0  0  0  0  0
  -23.6843   -1.2547   30.8516 C   0  0  0  0  0  0  0  0  0  0  0  0
  -23.7550   -0.0690   28.9935 C   0  0  0  0  0  0  0  0  0  0  0  0
  -23.1763    0.9784   29.1578 C   0  0  0  0  0  0  0  0  0  0  0  0
  -22.5609    1.5908   27.9948 C   0  0  0  0  0  0  0  0  0  0  0  0
  -23.1661    1.5350   26.7734 C   0  0  0  0  0  0  0  0  0  0  0  0
  -24.3056    1.2520   26.6964 C   0  0  0  0  0  0  0  0  0  0  0  0
  -24.9596    0.3718   27.9036 C   0  0  0  0  0  0  0  0  0  0  0  0
  -25.9340   -0.2944   27.8039 N   0  0  0  0  0  0  0  0  0  0  0  0
  2  7  1  0
  7  8  1  0
  8  9  1  0
  8 10  2  0
  9 11  1  0
  9 12  1  0
  9 13  1  0
  4 14  1  0
 14 15  1  0
 14 16  1  0
  3 22  1  0
 21 22  1  0
  1  2  2  0
  2  5  1  0
  5  6  2  0
  6  4  1  0
  4  3  2  0
  3  1  1  0
 16 17  2  0
 17 18  1  0
 18 19  2  0
 19 20  1  0
 20 21  2  0
 21 16  1  0
M  END

$$$$
