No_2952-gen_results/8p0m/2024-11-27-11-27-31/
     RDKit          3D

  6  5  0  0  0  0  0  0  0  0999 V2000
  -28.0544   -1.0498   28.7246 N   0  0  0  0  0  0  0  0  0  0  0  0
  -27.7460   -0.0733   29.0098 C   0  0  0  0  0  0  0  0  0  0  0  0
  -27.4816    0.4062   30.2968 C   0  0  0  0  0  0  0  0  0  0  0  0
  -26.9976    1.7451   30.6418 C   0  0  0  0  0  0  0  0  0  0  0  0
  -26.5906    2.5260   29.5997 C   0  0  0  0  0  0  0  0  0  0  0  0
  -26.7099    2.0097   28.2668 C   0  0  0  0  0  0  0  0  0  0  0  0
  1  2  3  0
  2  3  1  0
  3  4  1  0
  4  5  2  3
  5  6  1  0
M  END

$$$$
