No_2158-gen_results/8p0m/2024-11-27-11-27-31/
     RDKit          3D

 13 14  0  0  0  0  0  0  0  0999 V2000
  -28.0162   -0.8135   28.8779 C   0  0  0  0  0  0  0  0  0  0  0  0
  -27.0636   -0.1190   28.6079 C   0  0  0  0  0  0  0  0  0  0  0  0
  -25.8176   -0.3427   29.0488 N   0  0  0  0  0  0  0  0  0  0  0  0
  -24.6506    0.4444   28.7649 C   0  0  0  0  0  0  0  0  0  0  0  0
  -24.7153    1.3122   27.7191 C   0  0  0  0  0  0  0  0  0  0  0  0
  -25.9996    1.5243   27.1533 C   0  0  0  0  0  0  0  0  0  0  0  0
  -27.0905    0.8203   27.5377 C   0  0  0  0  0  0  0  0  0  0  0  0
  -27.8878   -1.9719   30.1418 Cl  0  0  0  0  0  0  0  0  0  0  0  0
  -23.5171    2.0651   27.3781 C   0  0  0  0  0  0  0  0  0  0  0  0
  -23.4203    2.5559   26.1867 O   0  0  0  0  0  0  0  0  0  0  0  0
  -22.3538    1.9338   28.1375 N   0  0  0  0  0  0  0  0  0  0  0  0
  -28.3545    0.6997   27.2083 N   0  0  0  0  0  0  0  0  0  0  0  0
  -28.9183   -0.2145   28.0356 C   0  0  0  0  0  0  0  0  0  0  0  0
  1  2  1  0
  1  8  1  0
  5  9  1  0
  9 10  2  0
  9 11  1  0
  7 12  1  0
  1 13  1  0
 12 13  2  0
  2  3  2  0
  3  4  1  0
  4  5  2  0
  5  6  1  0
  6  7  2  0
  7  2  1  0
M  END

$$$$
