No_2870-gen_results/8p0m/2024-11-27-11-27-31/
     RDKit          3D

 35 38  0  0  0  0  0  0  0  0999 V2000
  -28.0162   -0.8135   28.8779 C   0  0  0  0  0  0  0  0  0  0  0  0
  -27.0636   -0.1190   28.6079 C   0  0  0  0  0  0  0  0  0  0  0  0
  -26.9287    1.1713   29.0083 C   0  0  0  0  0  0  0  0  0  0  0  0
  -25.7702    2.0341   28.6884 C   0  0  0  0  0  0  0  0  0  0  0  0
  -24.7141    1.4431   27.9188 C   0  0  0  0  0  0  0  0  0  0  0  0
  -24.8590    0.0783   27.5836 C   0  0  0  0  0  0  0  0  0  0  0  0
  -25.9647   -0.6606   27.9164 C   0  0  0  0  0  0  0  0  0  0  0  0
  -29.2431   -0.1966   29.1279 C   0  0  0  0  0  0  0  0  0  0  0  0
  -29.2984    1.0857   29.4305 C   0  0  0  0  0  0  0  0  0  0  0  0
  -28.1405    1.8773   29.2637 C   0  0  0  0  0  0  0  0  0  0  0  0
  -23.4432    2.0945   27.6730 C   0  0  0  0  0  0  0  0  0  0  0  0
  -22.2644    2.0424   27.9251 N   0  0  0  0  0  0  0  0  0  0  0  0
  -23.7250    3.1820   26.7947 O   0  0  0  0  0  0  0  0  0  0  0  0
  -21.7890    0.9539   28.7492 C   0  0  0  0  0  0  0  0  0  0  0  0
  -20.7407    0.1046   28.2343 C   0  0  0  0  0  0  0  0  0  0  0  0
  -22.5112    0.5443   29.7907 N   0  0  0  0  0  0  0  0  0  0  0  0
  -22.2226   -0.5973   30.4503 C   0  0  0  0  0  0  0  0  0  0  0  0
  -20.4402   -1.0059   28.9093 N   0  0  0  0  0  0  0  0  0  0  0  0
  -21.1789   -1.3158   30.0409 N   0  0  0  0  0  0  0  0  0  0  0  0
  -22.9368   -0.9321   31.5004 N   0  0  0  0  0  0  0  0  0  0  0  0
  -24.2715   -0.5996   31.7238 C   0  0  0  0  0  0  0  0  0  0  0  0
  -24.6093    0.0088   32.9831 C   0  0  0  0  0  0  0  0  0  0  0  0
  -26.0063    0.5294   33.1333 C   0  0  0  0  0  0  0  0  0  0  0  0
  -26.4042    1.2962   34.1142 C   0  0  0  0  0  0  0  0  0  0  0  0
  -27.2302    1.9502   34.5239 C   0  0  0  0  0  0  0  0  0  0  0  0
  -28.4521    1.9595   33.6898 C   0  0  0  0  0  0  0  0  0  0  0  0
  -28.3214    1.1245   32.5298 C   0  0  0  0  0  0  0  0  0  0  0  0
  -27.0429    0.4224   32.1978 C   0  0  0  0  0  0  0  0  0  0  0  0
  -28.1587    3.3502   29.5909 C   0  0  0  0  0  0  0  0  0  0  0  0
  -29.2167    3.7990   29.9422 O   0  0  0  0  0  0  0  0  0  0  0  0
  -27.0494    3.9914   29.5301 O   0  0  0  0  0  0  0  0  0  0  0  0
  -29.9229    2.7373   33.9179 Cl  0  0  0  0  0  0  0  0  0  0  0  0
  -26.8762    5.0852   29.9652 C   0  0  0  0  0  0  0  0  0  0  0  0
  -25.7327    5.7901   29.4761 C   0  0  0  0  0  0  0  0  0  0  0  0
  -26.0099    7.1316   28.5948 Cl  0  0  0  0  0  0  0  0  0  0  0  0
  5 11  1  0
 11 12  1  0
 11 13  2  0
 12 14  1  0
 17 20  1  0
 20 21  1  0
 21 22  2  3
 22 23  1  0
 10 29  1  0
 29 30  2  0
 29 31  1  0
 26 32  1  0
 31 33  1  0
 33 34  1  0
 34 35  1  0
  3  4  1  0
  4  5  2  0
  5  6  1  0
  6  7  2  0
  7  2  1  0
 14 15  2  0
 15 18  1  0
 18 19  2  0
 19 17  1  0
 17 16  2  0
 16 14  1  0
  1  2  2  0
  2  3  1  0
  3 10  2  0
 10  9  1  0
  9  8  2  0
  8  1  1  0
 23 24  2  0
 24 25  1  0
 25 26  2  0
 26 27  1  0
 27 28  2  0
 28 23  1  0
M  END

$$$$
