No_2664-gen_results/8p0m/2024-11-27-11-27-31/
     RDKit          3D

 20 21  0  0  0  0  0  0  0  0999 V2000
  -28.0162   -0.8135   28.8779 C   0  0  0  0  0  0  0  0  0  0  0  0
  -28.4690   -0.7850   29.8287 C   0  0  0  0  0  0  0  0  0  0  0  0
  -26.5455   -0.8762   28.8500 C   0  0  0  0  0  0  0  0  0  0  0  0
  -25.8041   -1.0324   30.0571 C   0  0  0  0  0  0  0  0  0  0  0  0
  -26.5373   -1.0386   31.2171 C   0  0  0  0  0  0  0  0  0  0  0  0
  -27.8843   -0.9532   31.1862 C   0  0  0  0  0  0  0  0  0  0  0  0
  -24.5255   -1.0850   30.0372 F   0  0  0  0  0  0  0  0  0  0  0  0
  -30.0667   -0.7185   29.9317 C   0  0  0  0  0  0  0  0  0  0  0  0
  -30.5540   -0.3138   29.1155 O   0  0  0  0  0  0  0  0  0  0  0  0
  -30.6863   -1.5075   30.8798 O   0  0  0  0  0  0  0  0  0  0  0  0
  -25.7496   -0.8248   27.6978 O   0  0  0  0  0  0  0  0  0  0  0  0
  -25.7912    0.3500   27.0101 C   0  0  0  0  0  0  0  0  0  0  0  0
  -24.7292    1.1448   27.1969 C   0  0  0  0  0  0  0  0  0  0  0  0
  -23.6947    0.8949   28.0541 C   0  0  0  0  0  0  0  0  0  0  0  0
  -22.4998    1.6963   28.1383 C   0  0  0  0  0  0  0  0  0  0  0  0
  -21.4598    1.3104   28.9248 C   0  0  0  0  0  0  0  0  0  0  0  0
  -21.4851    0.0030   29.5141 C   0  0  0  0  0  0  0  0  0  0  0  0
  -22.5505   -0.8578   29.3385 C   0  0  0  0  0  0  0  0  0  0  0  0
  -23.5108   -0.5043   28.4617 C   0  0  0  0  0  0  0  0  0  0  0  0
  -23.7080   -1.3448   27.6200 F   0  0  0  0  0  0  0  0  0  0  0  0
  4  7  1  0
  2  8  1  0
  8  9  2  0
  8 10  1  0
  3 11  1  0
 11 12  1  0
 12 13  1  0
 13 14  1  0
 19 20  1  0
 14 15  2  0
 15 16  1  0
 16 17  2  0
 17 18  1  0
 18 19  2  0
 19 14  1  0
  1  2  2  0
  2  6  1  0
  6  5  2  0
  5  4  1  0
  4  3  2  0
  3  1  1  0
M  END

$$$$
