No_2049-gen_results/8p0m/2024-11-27-11-27-31/
     RDKit          3D

 31 33  0  0  0  0  0  0  0  0999 V2000
  -28.0162   -0.8135   28.8779 C   0  0  0  0  0  0  0  0  0  0  0  0
  -28.4690   -0.7850   29.8287 C   0  0  0  0  0  0  0  0  0  0  0  0
  -26.5455   -0.8762   28.8500 C   0  0  0  0  0  0  0  0  0  0  0  0
  -25.8041   -1.0324   30.0571 C   0  0  0  0  0  0  0  0  0  0  0  0
  -24.3697   -1.0998   30.0718 C   0  0  0  0  0  0  0  0  0  0  0  0
  -27.9902   -1.0051   31.2092 C   0  0  0  0  0  0  0  0  0  0  0  0
  -26.5616   -1.1368   31.2600 C   0  0  0  0  0  0  0  0  0  0  0  0
  -23.7014    0.1528   29.9480 C   0  0  0  0  0  0  0  0  0  0  0  0
  -23.3319    0.6505   28.7936 C   0  0  0  0  0  0  0  0  0  0  0  0
  -24.1240    1.2984   27.9326 C   0  0  0  0  0  0  0  0  0  0  0  0
  -23.6460    1.6917   26.6701 C   0  0  0  0  0  0  0  0  0  0  0  0
  -24.4971    2.2274   25.7081 C   0  0  0  0  0  0  0  0  0  0  0  0
  -25.8455    2.3198   25.9638 C   0  0  0  0  0  0  0  0  0  0  0  0
  -26.2862    2.0379   27.2201 C   0  0  0  0  0  0  0  0  0  0  0  0
  -25.4404    1.5203   28.2145 C   0  0  0  0  0  0  0  0  0  0  0  0
  -21.9043    1.2967   28.9685 C   0  0  0  0  0  0  0  0  0  0  0  0
  -30.0867   -0.6618   29.8661 C   0  0  0  0  0  0  0  0  0  0  0  0
  -30.5485    0.4590   30.3243 O   0  0  0  0  0  0  0  0  0  0  0  0
  -30.7880   -1.6745   29.7556 O   0  0  0  0  0  0  0  0  0  0  0  0
  -25.9116   -0.8659   27.6990 O   0  0  0  0  0  0  0  0  0  0  0  0
  -23.7120    0.9423   31.2419 C   0  0  0  0  0  0  0  0  0  0  0  0
  -22.8649   -0.5798   28.0203 O   0  0  0  0  0  0  0  0  0  0  0  0
  -23.1381   -0.1500   30.7447 Cl  0  0  0  0  0  0  0  0  0  0  0  0
  -24.1389   -2.4553   30.7792 C   0  0  0  0  0  0  0  0  0  0  0  0
  -23.9576    2.3229   30.8381 C   0  0  0  0  0  0  0  0  0  0  0  0
  -25.0231    3.0529   31.5724 C   0  0  0  0  0  0  0  0  0  0  0  0
  -25.7198    2.5163   32.4648 C   0  0  0  0  0  0  0  0  0  0  0  0
  -26.8568    3.2761   32.9876 C   0  0  0  0  0  0  0  0  0  0  0  0
  -27.1329    4.5254   32.5327 C   0  0  0  0  0  0  0  0  0  0  0  0
  -26.3596    5.0699   31.5280 C   0  0  0  0  0  0  0  0  0  0  0  0
  -25.2996    4.3769   31.0118 C   0  0  0  0  0  0  0  0  0  0  0  0
  1  3  1  0
  3  4  1  0
  4  5  1  0
  2  6  1  0
  4  7  1  0
  6  7  1  0
  5  8  1  0
  8  9  1  0
  9 10  1  0
  9 16  1  0
  2 17  1  0
 17 18  2  0
 17 19  1  0
  3 20  2  0
  8 21  1  0
  9 22  1  0
  8 23  1  0
  5 24  1  0
 21 25  1  0
 25 26  1  0
  1  2  1  0
 26 27  2  0
 27 28  1  0
 28 29  2  0
 29 30  1  0
 30 31  2  0
 31 26  1  0
 10 11  2  0
 11 12  1  0
 12 13  2  0
 13 14  1  0
 14 15  2  0
 15 10  1  0
M  END

$$$$
