No_2686-gen_results/8p0m/2024-11-27-11-27-31/
     RDKit          3D

 16 16  0  0  0  0  0  0  0  0999 V2000
  -28.0162   -0.8135   28.8779 C   0  0  0  0  0  0  0  0  0  0  0  0
  -27.0636   -0.1189   28.6079 C   0  0  0  0  0  0  0  0  0  0  0  0
  -26.9287    1.1713   29.0083 C   0  0  0  0  0  0  0  0  0  0  0  0
  -25.7702    2.0341   28.6884 C   0  0  0  0  0  0  0  0  0  0  0  0
  -24.7141    1.4431   27.9188 C   0  0  0  0  0  0  0  0  0  0  0  0
  -24.8590    0.0783   27.5836 C   0  0  0  0  0  0  0  0  0  0  0  0
  -25.9647   -0.6606   27.9164 C   0  0  0  0  0  0  0  0  0  0  0  0
  -29.0842   -0.4795   28.3366 F   0  0  0  0  0  0  0  0  0  0  0  0
  -28.2927   -0.8724   30.2917 F   0  0  0  0  0  0  0  0  0  0  0  0
  -23.5345    2.1522   27.5632 C   0  0  0  0  0  0  0  0  0  0  0  0
  -22.4525    1.6469   27.0985 N   0  0  0  0  0  0  0  0  0  0  0  0
  -23.4337    3.3774   27.9560 O   0  0  0  0  0  0  0  0  0  0  0  0
  -25.7053    3.4042   29.1368 C   0  0  0  0  0  0  0  0  0  0  0  0
  -26.9977    3.7998   29.5154 O   0  0  0  0  0  0  0  0  0  0  0  0
  -27.2149    4.8796   30.1409 C   0  0  0  0  0  0  0  0  0  0  0  0
  -28.5107    5.1937   30.5423 C   0  0  0  0  0  0  0  0  0  0  0  0
  1  2  1  0
  1  8  1  0
  1  9  1  0
  5 10  1  0
 10 11  2  0
 10 12  1  0
  4 13  1  0
 13 14  1  0
 14 15  1  0
 15 16  2  0
  2  3  2  0
  3  4  1  0
  4  5  2  0
  5  6  1  0
  6  7  2  0
  7  2  1  0
M  END

$$$$
