No_2579-gen_results/8p0m/2024-11-27-11-27-31/
     RDKit          3D

 16 17  0  0  0  0  0  0  0  0999 V2000
  -28.0162   -0.8135   28.8779 C   0  0  0  0  0  0  0  0  0  0  0  0
  -27.0636   -0.1189   28.6079 C   0  0  0  0  0  0  0  0  0  0  0  0
  -26.9716    0.7139   27.5060 C   0  0  0  0  0  0  0  0  0  0  0  0
  -28.1053    0.7744   26.6421 C   0  0  0  0  0  0  0  0  0  0  0  0
  -29.2008    0.1044   27.0527 C   0  0  0  0  0  0  0  0  0  0  0  0
  -29.2096   -0.6029   28.1853 C   0  0  0  0  0  0  0  0  0  0  0  0
  -30.3749    0.2232   26.1670 C   0  0  0  0  0  0  0  0  0  0  0  0
  -30.2997    0.0795   24.9312 N   0  0  0  0  0  0  0  0  0  0  0  0
  -31.5477    0.2416   26.6915 O   0  0  0  0  0  0  0  0  0  0  0  0
  -25.8226   -0.1974   29.3824 O   0  0  0  0  0  0  0  0  0  0  0  0
  -25.0532   -1.2749   29.4419 C   0  0  0  0  0  0  0  0  0  0  0  0
  -23.8908   -1.2413   28.8981 C   0  0  0  0  0  0  0  0  0  0  0  0
  -25.6182   -2.4538   29.9570 C   0  0  0  0  0  0  0  0  0  0  0  0
  -22.9830   -2.3551   29.0955 C   0  0  0  0  0  0  0  0  0  0  0  0
  -24.8696   -3.6645   29.8982 C   0  0  0  0  0  0  0  0  0  0  0  0
  -23.5544   -3.5627   29.5440 C   0  0  0  0  0  0  0  0  0  0  0  0
  5  7  1  0
  7  8  1  0
  7  9  2  0
  2 10  1  0
 10 11  1  0
 11 12  2  0
 12 14  1  0
 14 16  2  0
 16 15  1  0
 15 13  2  0
 13 11  1  0
  1  2  2  0
  2  3  1  0
  3  4  2  0
  4  5  1  0
  5  6  2  0
  6  1  1  0
M  END

$$$$
