No_2127-gen_results/8p0m/2024-11-27-11-27-31/
     RDKit          3D

 20 21  0  0  0  0  0  0  0  0999 V2000
  -28.0162   -0.8135   28.8779 C   0  0  0  0  0  0  0  0  0  0  0  0
  -27.0636   -0.1189   28.6079 C   0  0  0  0  0  0  0  0  0  0  0  0
  -27.0010    0.6913   27.4910 C   0  0  0  0  0  0  0  0  0  0  0  0
  -25.8548    1.4825   27.0830 C   0  0  0  0  0  0  0  0  0  0  0  0
  -24.6901    1.4526   27.8807 C   0  0  0  0  0  0  0  0  0  0  0  0
  -24.7379    0.6010   29.0416 C   0  0  0  0  0  0  0  0  0  0  0  0
  -25.8234   -0.1688   29.3887 C   0  0  0  0  0  0  0  0  0  0  0  0
  -28.7350   -0.4637   30.1419 C   0  0  0  0  0  0  0  0  0  0  0  0
  -29.8111   -1.3049   30.6008 C   0  0  0  0  0  0  0  0  0  0  0  0
  -23.5153    2.1989   27.5480 C   0  0  0  0  0  0  0  0  0  0  0  0
  -22.5727    1.9162   27.1702 N   0  0  0  0  0  0  0  0  0  0  0  0
  -30.9269   -1.1869   30.4327 C   0  0  0  0  0  0  0  0  0  0  0  0
  -31.9632   -2.1674   30.8482 C   0  0  0  0  0  0  0  0  0  0  0  0
  -31.4975   -3.3343   31.4642 C   0  0  0  0  0  0  0  0  0  0  0  0
  -30.1499   -3.5685   31.6579 C   0  0  0  0  0  0  0  0  0  0  0  0
  -29.2067   -2.5863   31.2190 C   0  0  0  0  0  0  0  0  0  0  0  0
  -23.6204    3.4998   27.9360 O   0  0  0  0  0  0  0  0  0  0  0  0
  -28.5133    0.7678   30.8794 C   0  0  0  0  0  0  0  0  0  0  0  0
  -27.7424    0.7576   31.9295 C   0  0  0  0  0  0  0  0  0  0  0  0
  -27.5718    1.9418   32.6926 C   0  0  0  0  0  0  0  0  0  0  0  0
  1  2  1  0
  1  8  1  0
  8  9  1  0
  5 10  1  0
 10 11  1  0
 10 17  2  0
  8 18  1  0
 18 19  2  3
 19 20  1  0
  2  3  2  0
  3  4  1  0
  4  5  2  0
  5  6  1  0
  6  7  2  0
  7  2  1  0
  9 12  2  0
 12 13  1  0
 13 14  2  0
 14 15  1  0
 15 16  2  0
 16  9  1  0
M  END

$$$$
