No_2598-gen_results/8p0m/2024-11-27-11-27-31/
     RDKit          3D

 16 17  0  0  0  0  0  0  0  0999 V2000
  -28.1229   -1.3353   28.4874 O   0  0  0  0  0  0  0  0  0  0  0  0
  -27.0637   -0.8242   28.8687 C   0  0  0  0  0  0  0  0  0  0  0  0
  -26.9592    0.0926   29.7582 C   0  0  0  0  0  0  0  0  0  0  0  0
  -25.8012   -1.3566   28.3971 N   0  0  0  0  0  0  0  0  0  0  0  0
  -27.8640    0.7751   30.2938 N   0  0  0  0  0  0  0  0  0  0  0  0
  -24.5449   -0.9177   28.7698 C   0  0  0  0  0  0  0  0  0  0  0  0
  -24.4468    0.1299   29.6027 C   0  0  0  0  0  0  0  0  0  0  0  0
  -25.6077    0.7074   30.1707 C   0  0  0  0  0  0  0  0  0  0  0  0
  -28.5874    0.1769   31.3132 C   0  0  0  0  0  0  0  0  0  0  0  0
  -28.4124    1.9222   29.7394 C   0  0  0  0  0  0  0  0  0  0  0  0
  -29.4994    2.0762   29.4863 C   0  0  0  0  0  0  0  0  0  0  0  0
  -30.0735    0.3500   31.2609 C   0  0  0  0  0  0  0  0  0  0  0  0
  -30.9003   -0.3043   32.1924 C   0  0  0  0  0  0  0  0  0  0  0  0
  -30.4900    1.3722   30.3844 C   0  0  0  0  0  0  0  0  0  0  0  0
  -30.5661   -0.6788   33.2382 O   0  0  0  0  0  0  0  0  0  0  0  0
  -31.9481   -0.9182   31.5819 O   0  0  0  0  0  0  0  0  0  0  0  0
  1  2  2  0
  2  3  1  0
  2  4  1  0
  3  5  1  0
  4  6  1  0
  3  8  1  0
  7  8  1  0
  5  9  1  0
  5 10  1  0
  9 12  1  0
 12 13  1  0
 11 14  1  0
 12 14  1  0
 13 15  2  0
 13 16  1  0
 11 10  1  0
  7  6  1  0
M  END

$$$$
