No_2213-gen_results/8p0m/2024-11-27-11-27-31/
     RDKit          3D

 18 19  0  0  0  0  0  0  0  0999 V2000
  -28.0162   -0.8135   28.8779 C   0  0  0  0  0  0  0  0  0  0  0  0
  -28.4690   -0.7850   29.8287 C   0  0  0  0  0  0  0  0  0  0  0  0
  -26.5042   -0.7777   28.8766 C   0  0  0  0  0  0  0  0  0  0  0  0
  -25.8103   -0.8531   30.1028 C   0  0  0  0  0  0  0  0  0  0  0  0
  -27.9906   -0.8916   31.2257 C   0  0  0  0  0  0  0  0  0  0  0  0
  -26.6042   -0.8676   31.2652 C   0  0  0  0  0  0  0  0  0  0  0  0
  -24.5004   -0.7818   30.1446 O   0  0  0  0  0  0  0  0  0  0  0  0
  -23.6886   -1.2456   29.3147 C   0  0  0  0  0  0  0  0  0  0  0  0
  -30.0995   -0.8277   29.8680 C   0  0  0  0  0  0  0  0  0  0  0  0
  -30.7304   -1.6946   30.2421 O   0  0  0  0  0  0  0  0  0  0  0  0
  -30.6377    0.2155   29.3236 O   0  0  0  0  0  0  0  0  0  0  0  0
  -22.7794   -0.2122   28.6840 C   0  0  0  0  0  0  0  0  0  0  0  0
  -23.2547    0.9317   28.0548 C   0  0  0  0  0  0  0  0  0  0  0  0
  -24.6206    1.2814   28.0692 C   0  0  0  0  0  0  0  0  0  0  0  0
  -24.8912    2.3866   27.4076 C   0  0  0  0  0  0  0  0  0  0  0  0
  -23.9493    3.2163   26.7705 C   0  0  0  0  0  0  0  0  0  0  0  0
  -22.6396    2.7178   26.6813 C   0  0  0  0  0  0  0  0  0  0  0  0
  -22.2826    1.6314   27.3421 C   0  0  0  0  0  0  0  0  0  0  0  0
  4  7  1  0
  7  8  1  0
  2  9  1  0
  9 10  2  0
  9 11  1  0
  8 12  1  0
 12 13  1  0
 13 14  2  0
 14 15  1  0
 15 16  2  0
 16 17  1  0
 17 18  2  0
 18 13  1  0
  1  2  2  0
  2  5  1  0
  5  6  2  0
  6  4  1  0
  4  3  2  0
  3  1  1  0
M  END

$$$$
