No_2389-gen_results/8p0m/2024-11-27-11-27-31/
     RDKit          3D

 14 14  0  0  0  0  0  0  0  0999 V2000
  -28.0162   -0.8135   28.8779 C   0  0  0  0  0  0  0  0  0  0  0  0
  -27.0636   -0.1189   28.6079 C   0  0  0  0  0  0  0  0  0  0  0  0
  -25.7923   -0.4302   29.0761 C   0  0  0  0  0  0  0  0  0  0  0  0
  -24.5456    0.3494   28.8225 C   0  0  0  0  0  0  0  0  0  0  0  0
  -24.6586    1.4196   27.8878 C   0  0  0  0  0  0  0  0  0  0  0  0
  -25.9471    1.6811   27.3792 C   0  0  0  0  0  0  0  0  0  0  0  0
  -27.0439    0.9739   27.6871 C   0  0  0  0  0  0  0  0  0  0  0  0
  -28.9951   -0.6028   28.1730 F   0  0  0  0  0  0  0  0  0  0  0  0
  -27.7713   -2.1685   28.9811 F   0  0  0  0  0  0  0  0  0  0  0  0
  -28.3666   -0.4904   30.2114 F   0  0  0  0  0  0  0  0  0  0  0  0
  -23.4692    2.1767   27.6275 C   0  0  0  0  0  0  0  0  0  0  0  0
  -23.6621    3.3093   27.1892 F   0  0  0  0  0  0  0  0  0  0  0  0
  -22.6363    1.5385   26.6728 F   0  0  0  0  0  0  0  0  0  0  0  0
  -22.6811    2.3213   28.7232 F   0  0  0  0  0  0  0  0  0  0  0  0
  1  2  1  0
  1  8  1  0
  1  9  1  0
  1 10  1  0
  5 11  1  0
 11 12  1  0
 11 13  1  0
 11 14  1  0
  2  3  2  0
  3  4  1  0
  4  5  2  0
  5  6  1  0
  6  7  2  0
  7  2  1  0
M  END

$$$$
