No_2797-gen_results/8p0m/2024-11-27-11-27-31/
     RDKit          3D

 30 32  0  0  0  0  0  0  0  0999 V2000
  -28.0162   -0.8135   28.8779 C   0  0  0  0  0  0  0  0  0  0  0  0
  -28.4690   -0.7850   29.8287 C   0  0  0  0  0  0  0  0  0  0  0  0
  -27.0871    0.2903   28.6377 C   0  0  0  0  0  0  0  0  0  0  0  0
  -26.8317    1.2487   29.5869 C   0  0  0  0  0  0  0  0  0  0  0  0
  -28.3914    0.0801   31.0065 C   0  0  0  0  0  0  0  0  0  0  0  0
  -27.4940    1.1521   30.7841 C   0  0  0  0  0  0  0  0  0  0  0  0
  -26.3172    0.3994   27.3653 C   0  0  0  0  0  0  0  0  0  0  0  0
  -26.8815    0.9711   26.3721 C   0  0  0  0  0  0  0  0  0  0  0  0
  -26.1465    0.9703   25.0973 C   0  0  0  0  0  0  0  0  0  0  0  0
  -24.7793    0.5609   25.1117 C   0  0  0  0  0  0  0  0  0  0  0  0
  -25.0074   -0.1159   27.2986 C   0  0  0  0  0  0  0  0  0  0  0  0
  -24.2881    0.0057   26.2234 C   0  0  0  0  0  0  0  0  0  0  0  0
  -24.3938   -0.7225   28.5385 C   0  0  0  0  0  0  0  0  0  0  0  0
  -23.6294   -1.1921   29.0847 C   0  0  0  0  0  0  0  0  0  0  0  0
  -22.6109   -1.6234   29.9080 C   0  0  0  0  0  0  0  0  0  0  0  0
  -28.2820    1.4695   26.2666 C   0  0  0  0  0  0  0  0  0  0  0  0
  -28.4442    2.6149   26.2853 O   0  0  0  0  0  0  0  0  0  0  0  0
  -29.2279    0.6017   26.3750 O   0  0  0  0  0  0  0  0  0  0  0  0
  -25.7922    2.5720   29.3939 Cl  0  0  0  0  0  0  0  0  0  0  0  0
  -29.5233   -1.9701   30.2208 C   0  0  0  0  0  0  0  0  0  0  0  0
  -30.6076   -1.9347   29.8566 O   0  0  0  0  0  0  0  0  0  0  0  0
  -29.0330   -3.0165   30.8498 O   0  0  0  0  0  0  0  0  0  0  0  0
  -30.5103    0.9163   25.8518 C   0  0  0  0  0  0  0  0  0  0  0  0
  -31.3980   -0.1233   26.0421 C   0  0  0  0  0  0  0  0  0  0  0  0
  -32.5110   -0.0801   25.4019 C   0  0  0  0  0  0  0  0  0  0  0  0
  -33.4662   -1.2252   25.4908 C   0  0  0  0  0  0  0  0  0  0  0  0
  -33.1439   -2.3835   26.2682 C   0  0  0  0  0  0  0  0  0  0  0  0
  -31.8967   -2.3939   26.8853 C   0  0  0  0  0  0  0  0  0  0  0  0
  -31.0560   -1.3372   26.8225 C   0  0  0  0  0  0  0  0  0  0  0  0
  -30.7493    1.9596   25.3818 O   0  0  0  0  0  0  0  0  0  0  0  0
  3  7  1  0
 11 13  1  0
 13 14  3  0
 14 15  1  0
  8 16  1  0
 16 17  2  0
 16 18  1  0
  4 19  1  0
  2 20  1  0
 20 21  1  0
 20 22  2  0
 18 23  1  0
 23 24  1  0
 23 30  2  0
  7  8  1  0
  8  9  2  0
  9 10  1  0
 10 12  2  0
 12 11  1  0
 11  7  2  0
 24 25  2  0
 25 26  1  0
 26 27  2  0
 27 28  1  0
 28 29  2  0
 29 24  1  0
  1  2  2  0
  2  5  1  0
  5  6  2  0
  6  4  1  0
  4  3  2  0
  3  1  1  0
M  END

$$$$
