No_2774-gen_results/8p0m/2024-11-27-11-27-31/
     RDKit          3D

 35 37  0  0  0  0  0  0  0  0999 V2000
  -28.0162   -0.8135   28.8779 C   0  0  0  0  0  0  0  0  0  0  0  0
  -27.0636   -0.1189   28.6079 C   0  0  0  0  0  0  0  0  0  0  0  0
  -26.9515    1.1286   28.9566 N   0  0  0  0  0  0  0  0  0  0  0  0
  -29.1088   -0.2102   29.6318 C   0  0  0  0  0  0  0  0  0  0  0  0
  -29.0881    1.0629   29.9416 C   0  0  0  0  0  0  0  0  0  0  0  0
  -27.9547    1.7679   29.5913 C   0  0  0  0  0  0  0  0  0  0  0  0
  -25.9103   -0.6251   27.9767 N   0  0  0  0  0  0  0  0  0  0  0  0
  -24.8720   -1.2704   28.7104 C   0  0  0  0  0  0  0  0  0  0  0  0
  -24.2557   -0.5545   29.7847 C   0  0  0  0  0  0  0  0  0  0  0  0
  -23.6087    0.3893   29.6322 C   0  0  0  0  0  0  0  0  0  0  0  0
  -22.6100    0.5602   28.6048 C   0  0  0  0  0  0  0  0  0  0  0  0
  -21.9955    1.6982   28.1109 C   0  0  0  0  0  0  0  0  0  0  0  0
  -25.4648    0.0906   26.8490 C   0  0  0  0  0  0  0  0  0  0  0  0
  -30.2265   -0.8715   29.8757 O   0  0  0  0  0  0  0  0  0  0  0  0
  -27.7548    3.4492   29.9439 Cl  0  0  0  0  0  0  0  0  0  0  0  0
  -21.2467    1.5646   27.0811 N   0  0  0  0  0  0  0  0  0  0  0  0
  -22.5663    2.8580   28.3398 O   0  0  0  0  0  0  0  0  0  0  0  0
  -30.1530   -2.0227   30.5781 C   0  0  0  0  0  0  0  0  0  0  0  0
  -26.2835    0.6073   25.8636 C   0  0  0  0  0  0  0  0  0  0  0  0
  -27.4608    0.2378   25.6893 C   0  0  0  0  0  0  0  0  0  0  0  0
  -28.2781    0.7473   24.6400 C   0  0  0  0  0  0  0  0  0  0  0  0
  -29.6214    0.4069   24.5402 C   0  0  0  0  0  0  0  0  0  0  0  0
  -30.1640   -0.3979   25.4824 C   0  0  0  0  0  0  0  0  0  0  0  0
  -31.5415   -0.7343   25.3409 C   0  0  0  0  0  0  0  0  0  0  0  0
  -32.1506   -1.6024   26.3367 C   0  0  0  0  0  0  0  0  0  0  0  0
  -33.1430   -2.4015   26.0136 C   0  0  0  0  0  0  0  0  0  0  0  0
  -33.8070   -2.2103   24.7889 C   0  0  0  0  0  0  0  0  0  0  0  0
  -33.3023   -1.3907   23.8254 C   0  0  0  0  0  0  0  0  0  0  0  0
  -32.0782   -0.7889   24.1024 C   0  0  0  0  0  0  0  0  0  0  0  0
  -31.1741   -2.9605   30.2093 C   0  0  0  0  0  0  0  0  0  0  0  0
  -32.0843   -2.6860   29.7320 O   0  0  0  0  0  0  0  0  0  0  0  0
  -31.0306   -4.2200   30.7145 N   0  0  0  0  0  0  0  0  0  0  0  0
  -29.8351   -4.7439   31.4549 C   0  0  0  0  0  0  0  0  0  0  0  0
  -28.8202   -3.8558   31.4170 C   0  0  0  0  0  0  0  0  0  0  0  0
  -28.9052   -2.5212   31.1012 C   0  0  0  0  0  0  0  0  0  0  0  0
  2  7  1  0
  7  8  1  0
  8  9  1  0
  9 10  1  0
 10 11  2  3
 11 12  1  0
  7 13  1  0
  4 14  1  0
  6 15  1  0
 12 16  2  0
 12 17  1  0
 14 18  1  0
 13 19  1  0
 19 20  1  0
 20 21  2  3
 21 22  1  0
 22 23  2  3
 23 24  1  0
 18 30  1  0
 30 31  2  0
 30 32  1  0
 32 33  1  0
 18 35  1  0
 34 35  1  0
 34 33  1  0
 24 25  2  0
 25 26  1  0
 26 27  2  0
 27 28  1  0
 28 29  2  0
 29 24  1  0
  1  2  2  0
  2  3  1  0
  3  6  2  0
  6  5  1  0
  5  4  2  0
  4  1  1  0
M  END

$$$$
