No_2180-gen_results/8p0m/2024-11-27-11-27-31/
     RDKit          3D

 33 37  0  0  0  0  0  0  0  0999 V2000
  -28.1146   -0.6256   29.0813 Br  0  0  0  0  0  0  0  0  0  0  0  0
  -27.4917    0.8142   29.3550 C   0  0  0  0  0  0  0  0  0  0  0  0
  -26.7100    1.4117   28.9943 C   0  0  0  0  0  0  0  0  0  0  0  0
  -26.1849    2.7117   29.4208 C   0  0  0  0  0  0  0  0  0  0  0  0
  -25.0594    3.5352   28.9449 C   0  0  0  0  0  0  0  0  0  0  0  0
  -24.3912    2.9572   27.8050 C   0  0  0  0  0  0  0  0  0  0  0  0
  -24.8019    1.7421   27.2812 C   0  0  0  0  0  0  0  0  0  0  0  0
  -25.8227    1.0952   27.8433 C   0  0  0  0  0  0  0  0  0  0  0  0
  -28.3304    1.5142   30.5522 C   0  0  0  0  0  0  0  0  0  0  0  0
  -29.3245    1.3957   30.6838 C   0  0  0  0  0  0  0  0  0  0  0  0
  -30.0925    2.0937   31.8090 C   0  0  0  0  0  0  0  0  0  0  0  0
  -29.3610    2.9293   32.6127 C   0  0  0  0  0  0  0  0  0  0  0  0
  -27.9859    3.0487   32.4108 C   0  0  0  0  0  0  0  0  0  0  0  0
  -27.4191    2.3785   31.3978 C   0  0  0  0  0  0  0  0  0  0  0  0
  -26.6108    3.1308   30.7525 N   0  0  0  0  0  0  0  0  0  0  0  0
  -25.5512    3.8384   31.5336 C   0  0  0  0  0  0  0  0  0  0  0  0
  -25.8112    5.3060   31.4996 C   0  0  0  0  0  0  0  0  0  0  0  0
  -26.5521    5.7869   30.7326 O   0  0  0  0  0  0  0  0  0  0  0  0
  -25.4371    5.9417   32.6537 N   0  0  0  0  0  0  0  0  0  0  0  0
  -25.5958    7.3934   32.8214 C   0  0  0  0  0  0  0  0  0  0  0  0
  -25.4383    7.8274   33.8321 C   0  0  0  0  0  0  0  0  0  0  0  0
  -24.8523    7.1892   35.0214 C   0  0  0  0  0  0  0  0  0  0  0  0
  -24.6973    5.7712   34.8544 C   0  0  0  0  0  0  0  0  0  0  0  0
  -24.9669    5.2038   33.6839 C   0  0  0  0  0  0  0  0  0  0  0  0
  -30.0670    3.5352   33.8301 C   0  0  0  0  0  0  0  0  0  0  0  0
  -29.4835    3.5536   34.9601 C   0  0  0  0  0  0  0  0  0  0  0  0
  -30.0577    4.2742   36.1069 C   0  0  0  0  0  0  0  0  0  0  0  0
  -31.2870    4.8976   35.8874 C   0  0  0  0  0  0  0  0  0  0  0  0
  -31.8552    4.8917   34.6690 C   0  0  0  0  0  0  0  0  0  0  0  0
  -31.2365    4.2887   33.5834 C   0  0  0  0  0  0  0  0  0  0  0  0
  -33.1237    5.6084   34.4279 C   0  0  0  0  0  0  0  0  0  0  0  0
  -33.5612    6.5087   34.7025 O   0  0  0  0  0  0  0  0  0  0  0  0
  -33.9026    4.5946   33.8007 O   0  0  0  0  0  0  0  0  0  0  0  0
  1  2  1  0
  2  9  1  0
  4 15  1  0
 14 15  1  0
 15 16  1  0
 16 17  1  0
 17 18  2  0
 17 19  1  0
 19 20  1  0
 21 22  1  0
 19 24  1  0
 23 24  1  0
 12 25  1  0
 29 31  1  0
 31 32  2  0
 31 33  1  0
 20 21  1  0
 22 23  1  0
  3  2  1  0
 25 26  2  0
 26 27  1  0
 27 28  2  0
 28 29  1  0
 29 30  2  0
 30 25  1  0
  3  4  2  0
  4  5  1  0
  5  6  2  0
  6  7  1  0
  7  8  2  0
  8  3  1  0
  9 10  2  0
 10 11  1  0
 11 12  2  0
 12 13  1  0
 13 14  2  0
 14  9  1  0
M  END

$$$$
