No_2281-gen_results/8p0m/2024-11-27-11-27-31/
     RDKit          3D

 26 30  0  0  0  0  0  0  0  0999 V2000
  -28.0162   -0.8135   28.8779 C   0  0  0  0  0  0  0  0  0  0  0  0
  -28.4690   -0.7850   29.8287 C   0  0  0  0  0  0  0  0  0  0  0  0
  -26.5042   -0.7777   28.8766 C   0  0  0  0  0  0  0  0  0  0  0  0
  -25.8103   -0.8531   30.1028 C   0  0  0  0  0  0  0  0  0  0  0  0
  -27.9906   -0.8916   31.2257 C   0  0  0  0  0  0  0  0  0  0  0  0
  -26.6042   -0.8676   31.2652 C   0  0  0  0  0  0  0  0  0  0  0  0
  -29.9385   -0.8194   29.8358 O   0  0  0  0  0  0  0  0  0  0  0  0
  -30.6978   -1.6543   30.3501 C   0  0  0  0  0  0  0  0  0  0  0  0
  -24.3665   -0.8009   30.1517 C   0  0  0  0  0  0  0  0  0  0  0  0
  -23.6111   -0.5763   29.0793 C   0  0  0  0  0  0  0  0  0  0  0  0
  -22.1571   -0.4106   29.2448 C   0  0  0  0  0  0  0  0  0  0  0  0
  -21.4156   -0.0110   28.1099 C   0  0  0  0  0  0  0  0  0  0  0  0
  -22.0778    0.9164   27.2323 C   0  0  0  0  0  0  0  0  0  0  0  0
  -23.5199    1.0552   27.2529 C   0  0  0  0  0  0  0  0  0  0  0  0
  -24.2197    0.4264   28.1864 C   0  0  0  0  0  0  0  0  0  0  0  0
  -23.9043    2.0069   26.1694 C   0  0  0  0  0  0  0  0  0  0  0  0
  -25.2434    2.1316   26.1197 N   0  0  0  0  0  0  0  0  0  0  0  0
  -23.1517    2.4176   25.3171 O   0  0  0  0  0  0  0  0  0  0  0  0
  -26.2332    1.8218   26.8507 C   0  0  0  0  0  0  0  0  0  0  0  0
  -25.6080    0.6426   28.0947 C   0  0  0  0  0  0  0  0  0  0  0  0
  -31.7384   -1.9699   29.5785 C   0  0  0  0  0  0  0  0  0  0  0  0
  -32.1956   -3.2865   29.5604 C   0  0  0  0  0  0  0  0  0  0  0  0
  -31.3274   -4.1745   29.6774 C   0  0  0  0  0  0  0  0  0  0  0  0
  -30.2286   -4.0615   30.6690 C   0  0  0  0  0  0  0  0  0  0  0  0
  -29.6779   -2.7080   30.6547 C   0  0  0  0  0  0  0  0  0  0  0  0
  -28.5404   -2.7044   31.3086 O   0  0  0  0  0  0  0  0  0  0  0  0
  2  7  1  0
  7  8  1  0
 14 16  1  0
 16 17  1  0
 16 18  2  0
 17 19  1  0
  8 21  1  0
 21 22  1  0
 22 23  1  0
  8 25  1  0
 24 25  1  0
 25 26  2  0
 23 24  1  0
 20 19  1  0
  4  9  2  0
  9 10  1  0
 15 20  1  0
 20  3  2  0
 10 11  2  0
 11 12  1  0
 12 13  2  0
 13 14  1  0
 14 15  2  0
 15 10  1  0
  1  2  2  0
  2  5  1  0
  5  6  2  0
  6  4  1  0
  4  3  1  0
  3  1  1  0
M  END

$$$$
