No_2704-gen_results/8p0m/2024-11-27-11-27-31/
     RDKit          3D

 12 11  0  0  0  0  0  0  0  0999 V2000
  -28.1229   -1.3353   28.4874 O   0  0  0  0  0  0  0  0  0  0  0  0
  -28.5208   -0.4363   29.0779 C   0  0  0  0  0  0  0  0  0  0  0  0
  -29.6977    0.0507   28.9764 C   0  0  0  0  0  0  0  0  0  0  0  0
  -27.7059   -0.0219   30.1625 N   0  0  0  0  0  0  0  0  0  0  0  0
  -26.3949   -0.3536   30.3653 C   0  0  0  0  0  0  0  0  0  0  0  0
  -29.8153    1.4537   28.6188 C   0  0  0  0  0  0  0  0  0  0  0  0
  -30.7976    1.9566   28.4782 N   0  0  0  0  0  0  0  0  0  0  0  0
  -30.6020   -0.2881   30.1048 N   0  0  0  0  0  0  0  0  0  0  0  0
  -30.8161   -1.4484   30.4577 C   0  0  0  0  0  0  0  0  0  0  0  0
  -31.9828    1.6638   28.6245 C   0  0  0  0  0  0  0  0  0  0  0  0
  -31.4924   -1.6278   31.6510 C   0  0  0  0  0  0  0  0  0  0  0  0
  -32.9333    1.9636   27.8231 C   0  0  0  0  0  0  0  0  0  0  0  0
  1  2  2  0
  2  3  1  0
  2  4  1  0
  4  5  1  0
  3  6  1  0
  6  7  2  3
  3  8  1  0
  8  9  1  0
  7 10  1  0
  9 11  2  0
 10 12  2  0
M  END

$$$$
