No_2476-gen_results/8p0m/2024-11-27-11-27-31/
     RDKit          3D

 35 37  0  0  0  0  0  0  0  0999 V2000
  -28.0162   -0.8135   28.8779 C   0  0  0  0  0  0  0  0  0  0  0  0
  -27.0636   -0.1189   28.6079 C   0  0  0  0  0  0  0  0  0  0  0  0
  -25.7923   -0.4302   29.0761 C   0  0  0  0  0  0  0  0  0  0  0  0
  -24.5456    0.3494   28.8225 C   0  0  0  0  0  0  0  0  0  0  0  0
  -24.6586    1.4196   27.8878 C   0  0  0  0  0  0  0  0  0  0  0  0
  -25.9471    1.6811   27.3792 C   0  0  0  0  0  0  0  0  0  0  0  0
  -27.0439    0.9739   27.6871 C   0  0  0  0  0  0  0  0  0  0  0  0
  -29.1797   -0.1202   29.1288 N   0  0  0  0  0  0  0  0  0  0  0  0
  -30.2095   -0.7652   29.7428 C   0  0  0  0  0  0  0  0  0  0  0  0
  -23.4456    2.1545   27.6087 C   0  0  0  0  0  0  0  0  0  0  0  0
  -22.2487    1.7329   28.0877 N   0  0  0  0  0  0  0  0  0  0  0  0
  -23.4757    3.0344   26.5940 N   0  0  0  0  0  0  0  0  0  0  0  0
  -27.8943   -1.8259   29.6348 O   0  0  0  0  0  0  0  0  0  0  0  0
  -31.4007   -0.8818   28.9985 C   0  0  0  0  0  0  0  0  0  0  0  0
  -31.4585   -0.4366   27.9644 O   0  0  0  0  0  0  0  0  0  0  0  0
  -32.4530   -1.6411   29.5257 N   0  0  0  0  0  0  0  0  0  0  0  0
  -33.6407   -1.9046   28.7727 C   0  0  0  0  0  0  0  0  0  0  0  0
  -30.1267   -1.0614   30.9685 O   0  0  0  0  0  0  0  0  0  0  0  0
  -34.1607   -3.0188   28.9547 C   0  0  0  0  0  0  0  0  0  0  0  0
  -33.9253   -3.6845   30.0593 C   0  0  0  0  0  0  0  0  0  0  0  0
  -32.6815   -3.5771   30.8021 C   0  0  0  0  0  0  0  0  0  0  0  0
  -32.2050   -2.3743   30.7262 C   0  0  0  0  0  0  0  0  0  0  0  0
  -35.3904   -3.4105   28.1545 C   0  0  0  0  0  0  0  0  0  0  0  0
  -35.4051   -4.0655   27.2628 C   0  0  0  0  0  0  0  0  0  0  0  0
  -36.5266   -4.4108   26.3775 C   0  0  0  0  0  0  0  0  0  0  0  0
  -36.6243   -2.7263   28.5168 C   0  0  0  0  0  0  0  0  0  0  0  0
  -37.7725   -2.9613   27.8095 C   0  0  0  0  0  0  0  0  0  0  0  0
  -37.7097   -3.8074   26.7163 C   0  0  0  0  0  0  0  0  0  0  0  0
  -32.1387   -4.6566   31.5511 C   0  0  0  0  0  0  0  0  0  0  0  0
  -30.9699   -4.5462   32.0602 C   0  0  0  0  0  0  0  0  0  0  0  0
  -30.6760   -4.5562   33.3595 C   0  0  0  0  0  0  0  0  0  0  0  0
  -30.0361   -4.1150   34.0512 C   0  0  0  0  0  0  0  0  0  0  0  0
  -29.9429   -4.2322   35.5283 C   0  0  0  0  0  0  0  0  0  0  0  0
  -30.8333   -5.0867   36.0648 C   0  0  0  0  0  0  0  0  0  0  0  0
  -31.6881   -5.7500   35.2780 C   0  0  0  0  0  0  0  0  0  0  0  0
  1  2  1  0
  1  8  1  0
  8  9  1  0
  5 10  1  0
 10 11  2  0
 10 12  1  0
  1 13  2  0
  9 14  1  0
 14 15  2  0
 14 16  1  0
 16 17  1  0
  9 18  2  0
 17 19  1  0
 19 20  1  0
 16 22  1  0
 21 22  1  0
 19 23  1  0
 21 29  1  0
 29 30  1  0
 30 31  2  3
 31 32  1  0
 32 33  2  3
 33 34  1  0
 34 35  2  0
 20 21  1  0
 23 24  2  0
 24 25  1  0
 25 28  2  0
 28 27  1  0
 27 26  2  0
 26 23  1  0
  2  3  2  0
  3  4  1  0
  4  5  2  0
  5  6  1  0
  6  7  2  0
  7  2  1  0
M  END

$$$$
