No_253-gen_results/8p0m/2024-11-27-11-27-31/
     RDKit          3D

 17 18  0  0  0  0  0  0  0  0999 V2000
  -28.0162   -0.8135   28.8779 C   0  0  0  0  0  0  0  0  0  0  0  0
  -28.4690   -0.7850   29.8287 C   0  0  0  0  0  0  0  0  0  0  0  0
  -27.1356    0.2359   28.5352 C   0  0  0  0  0  0  0  0  0  0  0  0
  -26.8745    1.2825   29.3982 C   0  0  0  0  0  0  0  0  0  0  0  0
  -28.3613    0.1987   30.9244 C   0  0  0  0  0  0  0  0  0  0  0  0
  -27.5277    1.2234   30.6356 C   0  0  0  0  0  0  0  0  0  0  0  0
  -26.3879    0.2914   27.2334 C   0  0  0  0  0  0  0  0  0  0  0  0
  -25.7787   -0.5228   27.0340 F   0  0  0  0  0  0  0  0  0  0  0  0
  -27.4096    0.4971   26.2409 F   0  0  0  0  0  0  0  0  0  0  0  0
  -25.6634    1.5011   26.9967 F   0  0  0  0  0  0  0  0  0  0  0  0
  -29.3955   -2.0219   30.3178 C   0  0  0  0  0  0  0  0  0  0  0  0
  -28.9778   -3.0866   30.3842 O   0  0  0  0  0  0  0  0  0  0  0  0
  -30.6069   -1.7583   30.6837 N   0  0  0  0  0  0  0  0  0  0  0  0
  -31.2911   -0.5379   30.5800 C   0  0  0  0  0  0  0  0  0  0  0  0
  -32.6091   -0.6474   31.0005 C   0  0  0  0  0  0  0  0  0  0  0  0
  -33.0550   -1.7719   31.3455 C   0  0  0  0  0  0  0  0  0  0  0  0
  -31.6478   -2.6032   31.2829 C   0  0  0  0  0  0  0  0  0  0  0  0
  3  7  1  0
  7  8  1  0
  7  9  1  0
  7 10  1  0
  2 11  1  0
 11 12  2  0
 11 13  1  0
 13 14  1  0
 14 15  2  0
 15 16  1  0
 13 17  1  0
 16 17  1  0
  1  2  2  0
  2  5  1  0
  5  6  2  0
  6  4  1  0
  4  3  2  0
  3  1  1  0
M  END

$$$$
