No_2211-gen_results/8p0m/2024-11-27-11-27-31/
     RDKit          3D

  7  6  0  0  0  0  0  0  0  0999 V2000
  -28.1229   -1.3353   28.4874 O   0  0  0  0  0  0  0  0  0  0  0  0
  -27.4806   -0.4044   28.7094 C   0  0  0  0  0  0  0  0  0  0  0  0
  -27.1904    0.2460   29.5268 C   0  0  0  0  0  0  0  0  0  0  0  0
  -26.5652   -0.3952   27.6169 F   0  0  0  0  0  0  0  0  0  0  0  0
  -26.3513    1.4775   29.6222 C   0  0  0  0  0  0  0  0  0  0  0  0
  -25.4916    1.4984   28.3978 C   0  0  0  0  0  0  0  0  0  0  0  0
  -24.4765    2.5697   28.2308 C   0  0  0  0  0  0  0  0  0  0  0  0
  1  2  2  0
  2  3  1  0
  2  4  1  0
  3  5  2  3
  5  6  1  0
  6  7  1  0
M  END

$$$$
