No_2257-gen_results/8p0m/2024-11-27-11-27-31/
     RDKit          3D

 16 17  0  0  0  0  0  0  0  0999 V2000
  -28.1229   -1.3353   28.4874 O   0  0  0  0  0  0  0  0  0  0  0  0
  -27.4806   -0.4044   28.7094 C   0  0  0  0  0  0  0  0  0  0  0  0
  -27.1904    0.2460   29.5268 C   0  0  0  0  0  0  0  0  0  0  0  0
  -26.8157    0.1371   27.4262 N   0  0  0  0  0  0  0  0  0  0  0  0
  -26.5177    0.6156   30.2044 C   0  0  0  0  0  0  0  0  0  0  0  0
  -26.5454    1.1964   31.6311 C   0  0  0  0  0  0  0  0  0  0  0  0
  -26.4943    1.0918   27.0964 C   0  0  0  0  0  0  0  0  0  0  0  0
  -25.4597    1.6725   32.3752 C   0  0  0  0  0  0  0  0  0  0  0  0
  -24.2486    1.6897   31.6726 C   0  0  0  0  0  0  0  0  0  0  0  0
  -24.0288    1.2328   30.4440 C   0  0  0  0  0  0  0  0  0  0  0  0
  -25.0618    0.7132   29.7767 C   0  0  0  0  0  0  0  0  0  0  0  0
  -27.3835    1.7897   26.3151 C   0  0  0  0  0  0  0  0  0  0  0  0
  -27.1882    3.1333   26.1672 C   0  0  0  0  0  0  0  0  0  0  0  0
  -25.9686    3.8136   26.5155 C   0  0  0  0  0  0  0  0  0  0  0  0
  -24.9970    3.0344   27.2103 C   0  0  0  0  0  0  0  0  0  0  0  0
  -25.2689    1.8338   27.5614 C   0  0  0  0  0  0  0  0  0  0  0  0
  1  2  2  0
  2  3  1  0
  2  4  1  0
  3  5  1  0
  4  7  1  0
  5  6  2  0
  6  8  1  0
  8  9  2  0
  9 10  1  0
 10 11  2  0
 11  5  1  0
  7 12  2  0
 12 13  1  0
 13 14  2  0
 14 15  1  0
 15 16  2  0
 16  7  1  0
M  END

$$$$
