No_2366-gen_results/8p0m/2024-11-27-11-27-31/
     RDKit          3D

 21 23  0  0  0  0  0  0  0  0999 V2000
  -28.0162   -0.8135   28.8779 C   0  0  0  0  0  0  0  0  0  0  0  0
  -27.0636   -0.1189   28.6079 C   0  0  0  0  0  0  0  0  0  0  0  0
  -26.8756    1.1325   28.9134 C   0  0  0  0  0  0  0  0  0  0  0  0
  -25.6883    1.9515   28.5672 C   0  0  0  0  0  0  0  0  0  0  0  0
  -24.6394    1.2834   27.8753 C   0  0  0  0  0  0  0  0  0  0  0  0
  -24.8068   -0.0513   27.6040 C   0  0  0  0  0  0  0  0  0  0  0  0
  -25.9019   -0.7670   27.9511 C   0  0  0  0  0  0  0  0  0  0  0  0
  -29.2153   -0.1057   29.1515 C   0  0  0  0  0  0  0  0  0  0  0  0
  -29.1861    1.2214   29.4463 C   0  0  0  0  0  0  0  0  0  0  0  0
  -28.0291    1.9304   29.1871 C   0  0  0  0  0  0  0  0  0  0  0  0
  -23.3576    1.9005   27.5777 C   0  0  0  0  0  0  0  0  0  0  0  0
  -22.6047    2.2692   28.2856 O   0  0  0  0  0  0  0  0  0  0  0  0
  -23.2564    2.2565   26.2512 O   0  0  0  0  0  0  0  0  0  0  0  0
  -25.5085    3.3870   28.8955 C   0  0  0  0  0  0  0  0  0  0  0  0
  -25.9498    4.3230   28.1094 C   0  0  0  0  0  0  0  0  0  0  0  0
  -25.8142    5.6958   28.4573 C   0  0  0  0  0  0  0  0  0  0  0  0
  -25.8188    6.7379   27.5123 C   0  0  0  0  0  0  0  0  0  0  0  0
  -25.5426    8.0576   27.8758 C   0  0  0  0  0  0  0  0  0  0  0  0
  -25.1313    8.4155   29.1747 C   0  0  0  0  0  0  0  0  0  0  0  0
  -25.1252    7.3527   30.0871 C   0  0  0  0  0  0  0  0  0  0  0  0
  -25.3854    6.0599   29.7636 C   0  0  0  0  0  0  0  0  0  0  0  0
  3  4  1  0
  4  5  1  0
  5  6  1  0
  2  7  1  0
  6  7  3  0
  5 11  1  0
 11 12  2  0
 11 13  1  0
  4 14  1  0
 14 15  2  3
 15 16  1  0
  1  2  2  0
  2  3  1  0
  3 10  2  0
 10  9  1  0
  9  8  2  0
  8  1  1  0
 16 17  2  0
 17 18  1  0
 18 19  2  0
 19 20  1  0
 20 21  2  0
 21 16  1  0
M  END

$$$$
