No_2675-gen_results/8p0m/2024-11-27-11-27-31/
     RDKit          3D

 22 24  0  0  0  0  0  0  0  0999 V2000
  -28.0162   -0.8135   28.8779 C   0  0  0  0  0  0  0  0  0  0  0  0
  -27.0636   -0.1189   28.6079 C   0  0  0  0  0  0  0  0  0  0  0  0
  -26.9287    1.1713   29.0083 C   0  0  0  0  0  0  0  0  0  0  0  0
  -27.9560    1.7411   29.7840 C   0  0  0  0  0  0  0  0  0  0  0  0
  -29.0569   -0.3271   29.7466 C   0  0  0  0  0  0  0  0  0  0  0  0
  -28.9828    0.9722   30.1516 C   0  0  0  0  0  0  0  0  0  0  0  0
  -25.9387   -0.8037   27.9016 C   0  0  0  0  0  0  0  0  0  0  0  0
  -24.5478   -0.6130   28.5298 C   0  0  0  0  0  0  0  0  0  0  0  0
  -23.6808    0.2303   28.5360 C   0  0  0  0  0  0  0  0  0  0  0  0
  -22.3813    0.0690   29.1773 C   0  0  0  0  0  0  0  0  0  0  0  0
  -24.3416   -1.6538   29.6246 C   0  0  0  0  0  0  0  0  0  0  0  0
  -23.2218   -1.7521   30.3207 C   0  0  0  0  0  0  0  0  0  0  0  0
  -22.2171   -0.8444   30.1070 C   0  0  0  0  0  0  0  0  0  0  0  0
  -30.1394    1.5311   30.9825 C   0  0  0  0  0  0  0  0  0  0  0  0
  -29.9953    2.4042   31.7412 O   0  0  0  0  0  0  0  0  0  0  0  0
  -31.1645    0.7580   31.0108 O   0  0  0  0  0  0  0  0  0  0  0  0
  -23.7710    1.3851   27.4779 C   0  0  0  0  0  0  0  0  0  0  0  0
  -22.8453    1.6673   26.5927 C   0  0  0  0  0  0  0  0  0  0  0  0
  -23.0457    2.8020   25.7489 C   0  0  0  0  0  0  0  0  0  0  0  0
  -24.3490    3.4271   25.8320 C   0  0  0  0  0  0  0  0  0  0  0  0
  -25.2830    3.1276   26.7076 C   0  0  0  0  0  0  0  0  0  0  0  0
  -24.9686    2.1069   27.6031 C   0  0  0  0  0  0  0  0  0  0  0  0
  2  7  1  0
  7  8  1  0
  6 14  1  0
 14 15  2  0
 14 16  1  0
  9 17  1  0
 17 18  2  0
 18 19  1  0
 19 20  2  0
 20 21  1  0
 21 22  2  0
 22 17  1  0
  8  9  1  0
  9 10  2  0
 10 13  1  0
 13 12  2  0
 12 11  1  0
 11  8  2  0
  1  2  2  0
  2  3  1  0
  3  4  2  0
  4  6  1  0
  6  5  2  0
  5  1  1  0
M  END

$$$$
