No_2188-gen_results/8p0m/2024-11-27-11-27-31/
     RDKit          3D

 16 17  0  0  0  0  0  0  0  0999 V2000
  -28.0162   -0.8135   28.8779 C   0  0  0  0  0  0  0  0  0  0  0  0
  -27.0636   -0.1189   28.6079 C   0  0  0  0  0  0  0  0  0  0  0  0
  -25.7647   -0.3897   29.0360 C   0  0  0  0  0  0  0  0  0  0  0  0
  -25.5296   -1.5302   29.9014 C   0  0  0  0  0  0  0  0  0  0  0  0
  -26.6577   -2.2915   30.2035 C   0  0  0  0  0  0  0  0  0  0  0  0
  -27.8548   -1.9555   29.7630 C   0  0  0  0  0  0  0  0  0  0  0  0
  -24.5441    0.4126   28.7379 C   0  0  0  0  0  0  0  0  0  0  0  0
  -24.4731    1.2065   27.7114 C   0  0  0  0  0  0  0  0  0  0  0  0
  -23.2779    1.8420   27.3661 C   0  0  0  0  0  0  0  0  0  0  0  0
  -22.0929    1.6644   28.0344 C   0  0  0  0  0  0  0  0  0  0  0  0
  -23.3031    0.1394   29.4701 C   0  0  0  0  0  0  0  0  0  0  0  0
  -22.0943    0.7975   29.1026 C   0  0  0  0  0  0  0  0  0  0  0  0
  -29.0142   -2.7937   30.1784 C   0  0  0  0  0  0  0  0  0  0  0  0
  -29.3503   -2.6957   31.2463 F   0  0  0  0  0  0  0  0  0  0  0  0
  -29.4256   -3.6850   29.4088 F   0  0  0  0  0  0  0  0  0  0  0  0
  -23.2871    2.7420   26.3188 O   0  0  0  0  0  0  0  0  0  0  0  0
  3  7  1  0
  6 13  1  0
 13 14  1  0
 13 15  1  0
  9 16  1  0
  7  8  2  0
  8  9  1  0
  9 10  2  0
 10 12  1  0
 12 11  2  0
 11  7  1  0
  1  2  2  0
  2  3  1  0
  3  4  2  0
  4  5  1  0
  5  6  2  0
  6  1  1  0
M  END

$$$$
