No_2564-gen_results/8p0m/2024-11-27-11-27-31/
     RDKit          3D

 35 37  0  0  0  0  0  0  0  0999 V2000
  -28.0162   -0.8135   28.8779 C   0  0  0  0  0  0  0  0  0  0  0  0
  -28.4690   -0.7850   29.8287 C   0  0  0  0  0  0  0  0  0  0  0  0
  -27.0871    0.2903   28.6377 C   0  0  0  0  0  0  0  0  0  0  0  0
  -26.8317    1.2487   29.5869 C   0  0  0  0  0  0  0  0  0  0  0  0
  -28.3914    0.0801   31.0065 C   0  0  0  0  0  0  0  0  0  0  0  0
  -27.4940    1.1521   30.7841 C   0  0  0  0  0  0  0  0  0  0  0  0
  -26.3172    0.3994   27.3653 C   0  0  0  0  0  0  0  0  0  0  0  0
  -25.8454    1.5466   27.3810 F   0  0  0  0  0  0  0  0  0  0  0  0
  -27.1886    0.3358   26.3366 F   0  0  0  0  0  0  0  0  0  0  0  0
  -25.3648   -0.5298   27.2900 F   0  0  0  0  0  0  0  0  0  0  0  0
  -29.4515   -2.0145   30.2416 C   0  0  0  0  0  0  0  0  0  0  0  0
  -30.5034   -1.9181   29.8820 O   0  0  0  0  0  0  0  0  0  0  0  0
  -28.9687   -3.0402   30.9027 O   0  0  0  0  0  0  0  0  0  0  0  0
  -27.2758    2.1671   31.8564 C   0  0  0  0  0  0  0  0  0  0  0  0
  -26.4359    2.9676   31.7947 C   0  0  0  0  0  0  0  0  0  0  0  0
  -26.1402    4.0459   32.8173 C   0  0  0  0  0  0  0  0  0  0  0  0
  -26.9219    3.9701   33.9651 C   0  0  0  0  0  0  0  0  0  0  0  0
  -27.8823    2.9915   34.0488 C   0  0  0  0  0  0  0  0  0  0  0  0
  -28.0937    2.0727   33.0680 C   0  0  0  0  0  0  0  0  0  0  0  0
  -25.0742    5.0287   32.6207 C   0  0  0  0  0  0  0  0  0  0  0  0
  -24.6666    5.2346   31.6234 O   0  0  0  0  0  0  0  0  0  0  0  0
  -24.5226    5.4718   33.8028 O   0  0  0  0  0  0  0  0  0  0  0  0
  -28.6774    2.9305   35.3393 C   0  0  0  0  0  0  0  0  0  0  0  0
  -29.5009    2.0751   35.5435 C   0  0  0  0  0  0  0  0  0  0  0  0
  -30.3587    2.0362   36.7144 C   0  0  0  0  0  0  0  0  0  0  0  0
  -30.1301    3.0415   37.6749 C   0  0  0  0  0  0  0  0  0  0  0  0
  -29.1728    3.9929   37.4979 C   0  0  0  0  0  0  0  0  0  0  0  0
  -28.4144    4.0161   36.3525 C   0  0  0  0  0  0  0  0  0  0  0  0
  -28.8850    5.1990   38.6831 Cl  0  0  0  0  0  0  0  0  0  0  0  0
  -31.4903    0.8413   36.9031 Cl  0  0  0  0  0  0  0  0  0  0  0  0
  -24.4778    6.9222   33.9073 C   0  0  0  0  0  0  0  0  0  0  0  0
  -25.4990    7.5689   34.0526 C   0  0  0  0  0  0  0  0  0  0  0  0
  -26.4734    7.1406   34.7984 C   0  0  0  0  0  0  0  0  0  0  0  0
  -27.7129    7.8885   35.1334 C   0  0  0  0  0  0  0  0  0  0  0  0
  -27.9462    8.9293   34.3899 C   0  0  0  0  0  0  0  0  0  0  0  0
  3  7  1  0
  7  8  1  0
  7  9  1  0
  7 10  1  0
  2 11  1  0
 11 12  1  0
 11 13  2  0
  6 14  1  0
 16 20  1  0
 20 21  2  0
 20 22  1  0
 18 23  1  0
 27 29  1  0
 25 30  1  0
 22 31  1  0
 31 32  1  0
 32 33  2  3
 33 34  1  0
 34 35  2  0
 14 15  2  0
 15 16  1  0
 16 17  2  0
 17 18  1  0
 18 19  2  0
 19 14  1  0
 23 24  2  0
 24 25  1  0
 25 26  2  0
 26 27  1  0
 27 28  2  0
 28 23  1  0
  1  2  2  0
  2  5  1  0
  5  6  2  0
  6  4  1  0
  4  3  2  0
  3  1  1  0
M  END

$$$$
