No_2203-gen_results/8p0m/2024-11-27-11-27-31/
     RDKit          3D

 23 25  0  0  0  0  0  0  0  0999 V2000
  -28.0162   -0.8135   28.8779 C   0  0  0  0  0  0  0  0  0  0  0  0
  -28.4690   -0.7850   29.8287 C   0  0  0  0  0  0  0  0  0  0  0  0
  -26.5042   -0.7777   28.8766 C   0  0  0  0  0  0  0  0  0  0  0  0
  -25.8103   -0.8531   30.1028 C   0  0  0  0  0  0  0  0  0  0  0  0
  -27.9906   -0.8916   31.2257 C   0  0  0  0  0  0  0  0  0  0  0  0
  -26.6042   -0.8676   31.2652 C   0  0  0  0  0  0  0  0  0  0  0  0
  -24.3894   -0.8049   30.1638 C   0  0  0  0  0  0  0  0  0  0  0  0
  -23.7660   -0.9500   31.0679 C   0  0  0  0  0  0  0  0  0  0  0  0
  -22.2665   -0.8379   31.2250 C   0  0  0  0  0  0  0  0  0  0  0  0
  -21.6701   -0.5264   30.0648 C   0  0  0  0  0  0  0  0  0  0  0  0
  -23.6437   -0.4433   28.9621 C   0  0  0  0  0  0  0  0  0  0  0  0
  -22.3479   -0.3035   28.9177 C   0  0  0  0  0  0  0  0  0  0  0  0
  -30.0912   -0.7849   29.8442 C   0  0  0  0  0  0  0  0  0  0  0  0
  -30.7647   -1.6045   30.2952 O   0  0  0  0  0  0  0  0  0  0  0  0
  -30.6108    0.2612   29.1559 N   0  0  0  0  0  0  0  0  0  0  0  0
  -32.0252    0.3714   28.9587 C   0  0  0  0  0  0  0  0  0  0  0  0
  -32.3415    0.9716   27.8704 C   0  0  0  0  0  0  0  0  0  0  0  0
  -31.4446    1.7530   27.1109 C   0  0  0  0  0  0  0  0  0  0  0  0
  -30.0594    1.6438   27.3256 C   0  0  0  0  0  0  0  0  0  0  0  0
  -29.7062    0.8773   28.2624 C   0  0  0  0  0  0  0  0  0  0  0  0
  -33.8352    1.2274   27.6363 C   0  0  0  0  0  0  0  0  0  0  0  0
  -34.3063    1.3851   26.5991 O   0  0  0  0  0  0  0  0  0  0  0  0
  -34.5734    1.4892   28.7119 O   0  0  0  0  0  0  0  0  0  0  0  0
  4  7  1  0
  2 13  1  0
 13 14  2  0
 13 15  1  0
 15 16  1  0
 17 18  1  0
 15 20  1  0
 19 20  1  0
 17 21  1  0
 21 22  2  0
 21 23  1  0
 16 17  1  0
 18 19  1  0
  7  8  2  0
  8  9  1  0
  9 10  2  0
 10 12  1  0
 12 11  2  0
 11  7  1  0
  1  2  2  0
  2  5  1  0
  5  6  2  0
  6  4  1  0
  4  3  2  0
  3  1  1  0
M  END

$$$$
