No_2370-gen_results/8p0m/2024-11-27-11-27-31/
     RDKit          3D

 18 19  0  0  0  0  0  0  0  0999 V2000
  -28.0162   -0.8135   28.8779 C   0  0  0  0  0  0  0  0  0  0  0  0
  -28.4690   -0.7850   29.8287 C   0  0  0  0  0  0  0  0  0  0  0  0
  -28.1960    0.3478   28.0550 C   0  0  0  0  0  0  0  0  0  0  0  0
  -27.4421    0.5100   26.7946 C   0  0  0  0  0  0  0  0  0  0  0  0
  -26.1689   -0.0794   26.6787 C   0  0  0  0  0  0  0  0  0  0  0  0
  -25.7312   -0.9607   27.6875 C   0  0  0  0  0  0  0  0  0  0  0  0
  -26.5043   -1.2222   28.7582 C   0  0  0  0  0  0  0  0  0  0  0  0
  -28.4210   -2.0451   30.7337 C   0  0  0  0  0  0  0  0  0  0  0  0
  -28.6416   -3.0482   30.3342 C   0  0  0  0  0  0  0  0  0  0  0  0
  -29.6090   -3.7308   30.9523 F   0  0  0  0  0  0  0  0  0  0  0  0
  -27.5280   -4.0388   30.4010 F   0  0  0  0  0  0  0  0  0  0  0  0
  -29.1286   -1.7570   32.0369 N   0  0  0  0  0  0  0  0  0  0  0  0
  -27.7883    1.4769   25.7525 C   0  0  0  0  0  0  0  0  0  0  0  0
  -29.3917   -0.6104   32.4477 C   0  0  0  0  0  0  0  0  0  0  0  0
  -29.0774    1.5023   25.4520 C   0  0  0  0  0  0  0  0  0  0  0  0
  -27.3555    2.8824   26.2445 C   0  0  0  0  0  0  0  0  0  0  0  0
  -27.0059    0.8995   24.6272 C   0  0  0  0  0  0  0  0  0  0  0  0
  -25.6595    0.1084   25.3730 C   0  0  0  0  0  0  0  0  0  0  0  0
  1  2  2  3
  1  3  1  0
  3  4  1  0
  4  5  1  0
  5  6  1  0
  1  7  1  0
  6  7  1  0
  2  8  1  0
  8  9  1  0
  9 10  1  0
  9 11  1  0
  8 12  1  0
  4 13  1  0
 12 14  1  0
 13 15  1  0
 13 16  1  0
 13 17  1  0
  5 18  1  0
 17 18  1  0
M  END

$$$$
