No_2378-gen_results/8p0m/2024-11-27-11-27-31/
     RDKit          3D

 20 22  0  0  0  0  0  0  0  0999 V2000
  -28.1146   -0.6256   29.0813 Br  0  0  0  0  0  0  0  0  0  0  0  0
  -26.9268    0.4545   28.6846 C   0  0  0  0  0  0  0  0  0  0  0  0
  -26.3163    0.3925   27.4205 C   0  0  0  0  0  0  0  0  0  0  0  0
  -25.2405    1.2269   27.1029 C   0  0  0  0  0  0  0  0  0  0  0  0
  -24.6421    2.0408   28.0381 C   0  0  0  0  0  0  0  0  0  0  0  0
  -25.1836    2.0489   29.2792 C   0  0  0  0  0  0  0  0  0  0  0  0
  -26.1920    1.2622   29.6115 C   0  0  0  0  0  0  0  0  0  0  0  0
  -23.2830    3.0081   27.5708 Cl  0  0  0  0  0  0  0  0  0  0  0  0
  -26.7005    1.3247   31.0529 C   0  0  0  0  0  0  0  0  0  0  0  0
  -26.4322    0.2922   31.8345 C   0  0  0  0  0  0  0  0  0  0  0  0
  -26.9162    0.2277   33.1275 C   0  0  0  0  0  0  0  0  0  0  0  0
  -27.6627    1.3097   33.6603 C   0  0  0  0  0  0  0  0  0  0  0  0
  -27.8675    2.4130   32.8469 C   0  0  0  0  0  0  0  0  0  0  0  0
  -27.3537    2.4638   31.5171 C   0  0  0  0  0  0  0  0  0  0  0  0
  -27.5922    3.6698   30.7582 C   0  0  0  0  0  0  0  0  0  0  0  0
  -28.7361    4.0593   30.3803 C   0  0  0  0  0  0  0  0  0  0  0  0
  -28.9429    5.2244   29.5761 C   0  0  0  0  0  0  0  0  0  0  0  0
  -27.8153    5.9451   29.1377 C   0  0  0  0  0  0  0  0  0  0  0  0
  -26.5252    5.5280   29.4996 C   0  0  0  0  0  0  0  0  0  0  0  0
  -26.4009    4.4531   30.3274 C   0  0  0  0  0  0  0  0  0  0  0  0
  1  2  1  0
  5  8  1  0
  7  9  1  0
 14 15  1  0
 15 16  2  0
 16 17  1  0
 17 18  2  0
 18 19  1  0
 19 20  2  0
 20 15  1  0
  2  3  2  0
  3  4  1  0
  4  5  2  0
  5  6  1  0
  6  7  2  0
  7  2  1  0
  9 10  2  0
 10 11  1  0
 11 12  2  0
 12 13  1  0
 13 14  2  0
 14  9  1  0
M  END

$$$$
