No_2287-gen_results/8p0m/2024-11-27-11-27-31/
     RDKit          3D

 15 17  0  0  0  0  0  0  0  0999 V2000
  -28.0162   -0.8135   28.8779 C   0  0  0  0  0  0  0  0  0  0  0  0
  -27.0636   -0.1190   28.6079 C   0  0  0  0  0  0  0  0  0  0  0  0
  -27.0010    0.6913   27.4910 C   0  0  0  0  0  0  0  0  0  0  0  0
  -25.7770    1.0214   26.9135 C   0  0  0  0  0  0  0  0  0  0  0  0
  -24.5088    0.7364   27.5686 C   0  0  0  0  0  0  0  0  0  0  0  0
  -23.2776    1.1675   27.1017 C   0  0  0  0  0  0  0  0  0  0  0  0
  -28.0386   -1.5919   30.1382 C   0  0  0  0  0  0  0  0  0  0  0  0
  -26.8122   -1.7762   30.8008 C   0  0  0  0  0  0  0  0  0  0  0  0
  -25.6542   -1.1542   30.4147 C   0  0  0  0  0  0  0  0  0  0  0  0
  -25.7248   -0.3202   29.2902 C   0  0  0  0  0  0  0  0  0  0  0  0
  -24.5135    0.1558   28.7472 C   0  0  0  0  0  0  0  0  0  0  0  0
  -23.0957    2.2101   26.1020 C   0  0  0  0  0  0  0  0  0  0  0  0
  -22.0507    0.9375   27.8508 C   0  0  0  0  0  0  0  0  0  0  0  0
  -21.9689    0.0997   28.8903 C   0  0  0  0  0  0  0  0  0  0  0  0
  -23.3224   -0.2679   29.4635 C   0  0  0  0  0  0  0  0  0  0  0  0
 12  6  1  0
  1  2  2  0
 10  9  2  0
  9  8  1  0
  8  7  2  0
  7  1  1  0
  5  6  2  0
  6 13  1  0
 13 14  2  0
 14 15  1  0
 15 11  2  0
  2  3  1  0
  3  4  2  0
  4  5  1  0
  5 11  1  0
 11 10  1  0
 10  2  1  0
M  END

$$$$
