No_2821-gen_results/8p0m/2024-11-27-11-27-31/
     RDKit          3D

 20 22  0  0  0  0  0  0  0  0999 V2000
  -28.0162   -0.8135   28.8779 C   0  0  0  0  0  0  0  0  0  0  0  0
  -28.4690   -0.7850   29.8287 C   0  0  0  0  0  0  0  0  0  0  0  0
  -28.1816    0.4277   28.1134 C   0  0  0  0  0  0  0  0  0  0  0  0
  -27.4498    0.6435   26.8500 C   0  0  0  0  0  0  0  0  0  0  0  0
  -26.1815    0.0357   26.7145 C   0  0  0  0  0  0  0  0  0  0  0  0
  -25.7800   -0.9326   27.6938 C   0  0  0  0  0  0  0  0  0  0  0  0
  -26.5568   -1.2134   28.7413 C   0  0  0  0  0  0  0  0  0  0  0  0
  -29.5918   -0.3147   30.2054 N   0  0  0  0  0  0  0  0  0  0  0  0
  -28.1141   -2.0875   30.8010 C   0  0  0  0  0  0  0  0  0  0  0  0
  -26.0420   -2.2667   29.5850 C   0  0  0  0  0  0  0  0  0  0  0  0
  -26.8976   -2.6751   30.6317 C   0  0  0  0  0  0  0  0  0  0  0  0
  -30.2594    0.4067   29.6511 C   0  0  0  0  0  0  0  0  0  0  0  0
  -29.4909    0.9951   28.2498 C   0  0  0  0  0  0  0  0  0  0  0  0
  -24.8185   -2.9552   29.3607 C   0  0  0  0  0  0  0  0  0  0  0  0
  -31.3121    1.0955   29.8665 O   0  0  0  0  0  0  0  0  0  0  0  0
  -24.6907   -4.1693   28.7242 C   0  0  0  0  0  0  0  0  0  0  0  0
  -23.6196   -2.1865   29.7191 C   0  0  0  0  0  0  0  0  0  0  0  0
  -30.0110    1.9112   27.5634 O   0  0  0  0  0  0  0  0  0  0  0  0
  -22.6048   -2.4513   29.0268 F   0  0  0  0  0  0  0  0  0  0  0  0
  -23.1966   -2.4353   30.9355 F   0  0  0  0  0  0  0  0  0  0  0  0
  1  2  1  0
  2  9  1  0
  7 10  1  0
  9 11  1  0
 10 11  1  0
  8 12  1  0
  3 13  1  0
 12 13  1  0
 10 14  1  0
 12 15  2  0
 14 16  1  0
 14 17  1  0
 13 18  2  0
 17 19  1  0
 17 20  1  0
  2  8  1  0
  1  7  1  0
  7  6  2  0
  6  5  1  0
  5  4  2  0
  4  3  1  0
  3  1  2  0
M  END

$$$$
