No_2057-gen_results/8p0m/2024-11-27-11-27-31/
     RDKit          3D

 17 18  0  0  0  0  0  0  0  0999 V2000
  -28.0162   -0.8135   28.8779 C   0  0  0  0  0  0  0  0  0  0  0  0
  -27.0636   -0.1190   28.6079 C   0  0  0  0  0  0  0  0  0  0  0  0
  -25.7923   -0.4302   29.0761 C   0  0  0  0  0  0  0  0  0  0  0  0
  -24.5456    0.3494   28.8225 C   0  0  0  0  0  0  0  0  0  0  0  0
  -24.6586    1.4196   27.8878 C   0  0  0  0  0  0  0  0  0  0  0  0
  -25.9471    1.6811   27.3792 C   0  0  0  0  0  0  0  0  0  0  0  0
  -27.0439    0.9739   27.6871 C   0  0  0  0  0  0  0  0  0  0  0  0
  -28.6843   -0.7120   30.2302 Cl  0  0  0  0  0  0  0  0  0  0  0  0
  -23.4443    2.1428   27.6097 C   0  0  0  0  0  0  0  0  0  0  0  0
  -23.4598    3.1260   26.8277 N   0  0  0  0  0  0  0  0  0  0  0  0
  -22.2216    1.7016   27.9824 N   0  0  0  0  0  0  0  0  0  0  0  0
  -28.2940    1.3231   27.0217 C   0  0  0  0  0  0  0  0  0  0  0  0
  -29.0479    0.6927   26.7878 O   0  0  0  0  0  0  0  0  0  0  0  0
  -28.3525    2.6171   26.6525 F   0  0  0  0  0  0  0  0  0  0  0  0
  -22.0400    0.6724   28.8444 C   0  0  0  0  0  0  0  0  0  0  0  0
  -23.1703   -0.1508   29.2252 C   0  0  0  0  0  0  0  0  0  0  0  0
  -22.9922   -1.4618   30.2097 Cl  0  0  0  0  0  0  0  0  0  0  0  0
  1  2  1  0
  1  8  1  0
  5  9  1  0
  9 11  1  0
  7 12  1  0
 12 13  2  0
 12 14  1  0
 11 15  1  0
  4 16  1  0
 15 16  1  0
 16 17  1  0
 10  9  1  0
  2  3  2  0
  3  4  1  0
  4  5  2  0
  5  6  1  0
  6  7  2  0
  7  2  1  0
M  END

$$$$
