No_2804-gen_results/8p0m/2024-11-27-11-27-31/
     RDKit          3D

 13 14  0  0  0  0  0  0  0  0999 V2000
  -28.0162   -0.8135   28.8779 C   0  0  0  0  0  0  0  0  0  0  0  0
  -28.4690   -0.7850   29.8287 C   0  0  0  0  0  0  0  0  0  0  0  0
  -26.5455   -0.8762   28.8500 C   0  0  0  0  0  0  0  0  0  0  0  0
  -25.8041   -1.0324   30.0571 C   0  0  0  0  0  0  0  0  0  0  0  0
  -26.5373   -1.0386   31.2171 C   0  0  0  0  0  0  0  0  0  0  0  0
  -27.8843   -0.9532   31.1862 C   0  0  0  0  0  0  0  0  0  0  0  0
  -24.3655   -1.1134   30.0483 C   0  0  0  0  0  0  0  0  0  0  0  0
  -23.7447   -1.3689   30.8125 C   0  0  0  0  0  0  0  0  0  0  0  0
  -22.5701   -0.8171   31.2268 C   0  0  0  0  0  0  0  0  0  0  0  0
  -21.7941   -0.1957   30.2067 C   0  0  0  0  0  0  0  0  0  0  0  0
  -22.4671    0.0452   28.9825 C   0  0  0  0  0  0  0  0  0  0  0  0
  -23.8655   -0.3262   28.8704 C   0  0  0  0  0  0  0  0  0  0  0  0
  -25.8550   -0.7997   27.7284 F   0  0  0  0  0  0  0  0  0  0  0  0
  4  7  1  0
  3 13  1  0
  1  2  2  0
  2  6  1  0
  6  5  2  0
  5  4  1  0
  4  3  2  0
  3  1  1  0
  7  8  2  0
  8  9  1  0
  9 10  2  0
 10 11  1  0
 11 12  2  0
 12  7  1  0
M  END

$$$$
