No_2184-gen_results/8p0m/2024-11-27-11-27-31/
     RDKit          3D

 29 34  0  0  0  0  0  0  0  0999 V2000
  -28.0162   -0.8135   28.8779 C   0  0  0  0  0  0  0  0  0  0  0  0
  -27.0636   -0.1189   28.6079 C   0  0  0  0  0  0  0  0  0  0  0  0
  -25.7923   -0.4302   29.0761 C   0  0  0  0  0  0  0  0  0  0  0  0
  -25.5756   -1.5654   29.9363 C   0  0  0  0  0  0  0  0  0  0  0  0
  -26.7354   -2.3004   30.2173 C   0  0  0  0  0  0  0  0  0  0  0  0
  -27.9184   -1.9537   29.7629 C   0  0  0  0  0  0  0  0  0  0  0  0
  -27.1057    1.1023   27.7593 C   0  0  0  0  0  0  0  0  0  0  0  0
  -27.8576    1.5309   27.2156 C   0  0  0  0  0  0  0  0  0  0  0  0
  -27.8433    2.7213   26.2861 C   0  0  0  0  0  0  0  0  0  0  0  0
  -26.6217    3.3253   26.0566 C   0  0  0  0  0  0  0  0  0  0  0  0
  -25.4854    2.7960   26.6725 C   0  0  0  0  0  0  0  0  0  0  0  0
  -25.6222    1.7365   27.5193 C   0  0  0  0  0  0  0  0  0  0  0  0
  -24.1950    3.4456   26.4809 C   0  0  0  0  0  0  0  0  0  0  0  0
  -23.0515    2.5919   26.8713 C   0  0  0  0  0  0  0  0  0  0  0  0
  -23.3205    1.5393   27.7878 C   0  0  0  0  0  0  0  0  0  0  0  0
  -24.5158    1.0792   28.0506 C   0  0  0  0  0  0  0  0  0  0  0  0
  -24.5218    0.2708   28.8053 C   0  0  0  0  0  0  0  0  0  0  0  0
  -22.1456    0.8744   28.3892 C   0  0  0  0  0  0  0  0  0  0  0  0
  -23.3358   -0.3518   29.3769 C   0  0  0  0  0  0  0  0  0  0  0  0
  -29.1414   -2.7272   30.1343 C   0  0  0  0  0  0  0  0  0  0  0  0
  -29.4907   -2.5665   31.3131 N   0  0  0  0  0  0  0  0  0  0  0  0
  -29.5333   -1.5642   31.9213 C   0  0  0  0  0  0  0  0  0  0  0  0
  -29.9320   -1.5593   33.3913 C   0  0  0  0  0  0  0  0  0  0  0  0
  -29.9748   -3.8465   32.0013 C   0  0  0  0  0  0  0  0  0  0  0  0
  -30.2529   -3.8694   33.3383 C   0  0  0  0  0  0  0  0  0  0  0  0
  -30.3168   -2.6580   34.0335 C   0  0  0  0  0  0  0  0  0  0  0  0
  -29.8625   -3.1089   29.2768 O   0  0  0  0  0  0  0  0  0  0  0  0
  -22.6766   -1.1899   30.1442 C   0  0  0  0  0  0  0  0  0  0  0  0
  -29.1829    1.1037   27.3050 F   0  0  0  0  0  0  0  0  0  0  0  0
  2  7  1  0
  3 17  1  0
 16 17  1  0
 15 18  1  0
 17 19  1  0
 18 19  1  0
  6 20  1  0
 20 21  1  0
 21 22  1  0
 21 24  1  0
 23 26  1  0
 25 26  1  0
 20 27  2  0
 19 28  1  0
  8 29  1  0
 22 23  1  0
 25 24  1  0
  1  2  2  0
  2  3  1  0
  3  4  2  0
  4  5  1  0
  5  6  2  0
  6  1  1  0
 12 16  2  0
 16 15  1  0
 15 14  2  0
 14 13  1  0
 13 11  2  0
  7  8  2  0
  8  9  1  0
  9 10  2  0
 10 11  1  0
 11 12  1  0
 12  7  1  0
M  END

$$$$
