No_2037-gen_results/8p0m/2024-11-27-11-27-31/
     RDKit          3D

 16 17  0  0  0  0  0  0  0  0999 V2000
  -28.0162   -0.8135   28.8779 C   0  0  0  0  0  0  0  0  0  0  0  0
  -28.4690   -0.7850   29.8287 C   0  0  0  0  0  0  0  0  0  0  0  0
  -26.5455   -0.8762   28.8500 C   0  0  0  0  0  0  0  0  0  0  0  0
  -25.8041   -1.0324   30.0571 C   0  0  0  0  0  0  0  0  0  0  0  0
  -27.9437   -0.9869   31.2075 C   0  0  0  0  0  0  0  0  0  0  0  0
  -26.5825   -1.0386   31.2231 C   0  0  0  0  0  0  0  0  0  0  0  0
  -24.3810   -1.1082   30.0855 C   0  0  0  0  0  0  0  0  0  0  0  0
  -23.6421   -1.1177   29.0486 C   0  0  0  0  0  0  0  0  0  0  0  0
  -22.1825   -0.9779   29.1035 C   0  0  0  0  0  0  0  0  0  0  0  0
  -23.6394   -0.1093   30.9364 C   0  0  0  0  0  0  0  0  0  0  0  0
  -24.2238    0.2128   32.1768 N   0  0  0  0  0  0  0  0  0  0  0  0
  -22.3210    0.2868   30.6967 C   0  0  0  0  0  0  0  0  0  0  0  0
  -21.6660    0.1072   29.6106 C   0  0  0  0  0  0  0  0  0  0  0  0
  -30.0926   -0.7383   29.8754 C   0  0  0  0  0  0  0  0  0  0  0  0
  -30.7537   -1.5290   30.3524 O   0  0  0  0  0  0  0  0  0  0  0  0
  -30.5802    0.2985   29.2877 O   0  0  0  0  0  0  0  0  0  0  0  0
  4  7  1  0
 10 11  1  0
  2 14  1  0
 14 15  2  0
 14 16  1  0
  7  8  2  0
  8  9  1  0
  9 13  2  0
 13 12  1  0
 12 10  2  0
 10  7  1  0
  1  2  2  0
  2  5  1  0
  5  6  2  0
  6  4  1  0
  4  3  2  0
  3  1  1  0
M  END

$$$$
