No_2275-gen_results/8p0m/2024-11-27-11-27-31/
     RDKit          3D

 35 37  0  0  0  0  0  0  0  0999 V2000
  -28.0162   -0.8135   28.8779 C   0  0  0  0  0  0  0  0  0  0  0  0
  -28.4690   -0.7850   29.8287 C   0  0  0  0  0  0  0  0  0  0  0  0
  -27.1356    0.2359   28.5352 C   0  0  0  0  0  0  0  0  0  0  0  0
  -26.8745    1.2825   29.3982 C   0  0  0  0  0  0  0  0  0  0  0  0
  -27.5070    1.2380   30.6295 C   0  0  0  0  0  0  0  0  0  0  0  0
  -28.3293    0.1745   30.9350 C   0  0  0  0  0  0  0  0  0  0  0  0
  -26.4077    0.3070   27.2259 C   0  0  0  0  0  0  0  0  0  0  0  0
  -25.7128    1.4905   26.9212 C   0  0  0  0  0  0  0  0  0  0  0  0
  -25.4301    2.4538   27.8655 C   0  0  0  0  0  0  0  0  0  0  0  0
  -26.0916    2.4163   29.0923 C   0  0  0  0  0  0  0  0  0  0  0  0
  -25.8331    3.5594   30.0163 C   0  0  0  0  0  0  0  0  0  0  0  0
  -25.9556    4.7662   29.5597 O   0  0  0  0  0  0  0  0  0  0  0  0
  -25.6782    3.3086   31.3025 O   0  0  0  0  0  0  0  0  0  0  0  0
  -29.2957   -1.9134   30.2749 F   0  0  0  0  0  0  0  0  0  0  0  0
  -24.9735    1.4809   25.6498 C   0  0  0  0  0  0  0  0  0  0  0  0
  -23.6738    1.0733   25.6406 C   0  0  0  0  0  0  0  0  0  0  0  0
  -22.7847    1.9757   26.4864 C   0  0  0  0  0  0  0  0  0  0  0  0
  -22.5406    1.5360   27.8467 C   0  0  0  0  0  0  0  0  0  0  0  0
  -21.8366    0.3667   28.0988 C   0  0  0  0  0  0  0  0  0  0  0  0
  -21.7435   -0.1251   29.4294 C   0  0  0  0  0  0  0  0  0  0  0  0
  -22.9987   -0.5286   29.9756 C   0  0  0  0  0  0  0  0  0  0  0  0
  -23.6563    0.6790   30.4715 C   0  0  0  0  0  0  0  0  0  0  0  0
  -24.4555    0.2749   31.6856 C   0  0  0  0  0  0  0  0  0  0  0  0
  -24.7153   -0.9824   32.0111 C   0  0  0  0  0  0  0  0  0  0  0  0
  -24.0998   -2.0149   31.3621 C   0  0  0  0  0  0  0  0  0  0  0  0
  -22.8493   -1.5880   30.9051 C   0  0  0  0  0  0  0  0  0  0  0  0
  -23.8671   -0.9887   28.7865 C   0  0  0  0  0  0  0  0  0  0  0  0
  -25.6793    4.3841   32.2090 C   0  0  0  0  0  0  0  0  0  0  0  0
  -26.1007    4.0363   33.5382 C   0  0  0  0  0  0  0  0  0  0  0  0
  -26.9027    2.9103   33.5797 C   0  0  0  0  0  0  0  0  0  0  0  0
  -27.2403    2.5963   35.0123 C   0  0  0  0  0  0  0  0  0  0  0  0
  -27.5585    1.2375   35.2693 C   0  0  0  0  0  0  0  0  0  0  0  0
  -27.6329    0.5999   36.0545 C   0  0  0  0  0  0  0  0  0  0  0  0
  -27.9445   -0.7977   36.0833 C   0  0  0  0  0  0  0  0  0  0  0  0
  -28.2234   -1.3771   34.8520 C   0  0  0  0  0  0  0  0  0  0  0  0
 10 11  1  0
 11 12  2  0
 11 13  1  0
  2 14  1  0
  8 15  1  0
 15 16  1  0
 16 17  1  0
 17 18  1  0
 18 19  2  3
 19 20  1  0
 20 21  1  0
 21 22  1  0
 22 23  1  0
 24 25  1  0
 21 26  1  0
 25 26  1  0
 21 27  1  0
 13 28  1  0
 28 29  1  0
 29 30  1  0
 30 31  1  0
 31 32  1  0
 32 33  2  3
 33 34  1  0
 34 35  2  0
 23 24  1  0
  4 10  2  0
 10  9  1  0
  9  8  2  0
  8  7  1  0
  7  3  2  0
  1  2  2  0
  2  6  1  0
  6  5  2  0
  5  4  1  0
  4  3  1  0
  3  1  1  0
M  END

$$$$
