No_2299-gen_results/8p0m/2024-11-27-11-27-31/
     RDKit          3D

 18 20  0  0  0  0  0  0  0  0999 V2000
  -28.0162   -0.8135   28.8779 C   0  0  0  0  0  0  0  0  0  0  0  0
  -28.4690   -0.7850   29.8287 C   0  0  0  0  0  0  0  0  0  0  0  0
  -27.1356    0.2359   28.5352 C   0  0  0  0  0  0  0  0  0  0  0  0
  -26.8745    1.2825   29.3982 C   0  0  0  0  0  0  0  0  0  0  0  0
  -28.3613    0.1987   30.9244 C   0  0  0  0  0  0  0  0  0  0  0  0
  -27.5277    1.2234   30.6356 C   0  0  0  0  0  0  0  0  0  0  0  0
  -26.3987    0.2949   27.2279 C   0  0  0  0  0  0  0  0  0  0  0  0
  -25.0392    0.2356   27.3538 C   0  0  0  0  0  0  0  0  0  0  0  0
  -27.0287    0.3958   26.0087 C   0  0  0  0  0  0  0  0  0  0  0  0
  -26.2725    0.3047   24.8644 C   0  0  0  0  0  0  0  0  0  0  0  0
  -24.3360    0.0989   28.6508 C   0  0  0  0  0  0  0  0  0  0  0  0
  -24.8412    0.2669   24.9621 C   0  0  0  0  0  0  0  0  0  0  0  0
  -24.2741    0.3219   26.1572 C   0  0  0  0  0  0  0  0  0  0  0  0
  -23.9571   -1.0909   29.1539 C   0  0  0  0  0  0  0  0  0  0  0  0
  -23.3361   -1.1973   30.3036 C   0  0  0  0  0  0  0  0  0  0  0  0
  -23.3607   -0.1570   31.1341 C   0  0  0  0  0  0  0  0  0  0  0  0
  -24.2612    1.0477   29.8378 C   0  0  0  0  0  0  0  0  0  0  0  0
  -23.2944    2.0606   29.7808 O   0  0  0  0  0  0  0  0  0  0  0  0
  3  7  1  0
  8 11  1  0
 11 14  2  0
 14 15  1  0
 15 16  2  0
 11 17  1  0
 16 17  1  0
 17 18  1  0
  1  2  2  0
  2  5  1  0
  5  6  2  0
  6  4  1  0
  4  3  2  0
  3  1  1  0
  7  8  2  0
  8 13  1  0
 13 12  2  0
 12 10  1  0
 10  9  2  0
  9  7  1  0
M  END

$$$$
