No_2836-gen_results/8p0m/2024-11-27-11-27-31/
     RDKit          3D

 15 16  0  0  0  0  0  0  0  0999 V2000
  -28.0162   -0.8135   28.8779 C   0  0  0  0  0  0  0  0  0  0  0  0
  -28.4690   -0.7850   29.8287 C   0  0  0  0  0  0  0  0  0  0  0  0
  -26.5042   -0.7777   28.8766 C   0  0  0  0  0  0  0  0  0  0  0  0
  -25.8103   -0.8531   30.1028 C   0  0  0  0  0  0  0  0  0  0  0  0
  -27.9906   -0.8916   31.2257 C   0  0  0  0  0  0  0  0  0  0  0  0
  -26.6042   -0.8676   31.2652 C   0  0  0  0  0  0  0  0  0  0  0  0
  -29.9385   -0.8194   29.8358 O   0  0  0  0  0  0  0  0  0  0  0  0
  -30.6978   -1.6543   30.3501 C   0  0  0  0  0  0  0  0  0  0  0  0
  -24.3665   -0.8009   30.1517 C   0  0  0  0  0  0  0  0  0  0  0  0
  -23.8145    0.5247   29.9887 C   0  0  0  0  0  0  0  0  0  0  0  0
  -22.5460    0.6335   29.3529 C   0  0  0  0  0  0  0  0  0  0  0  0
  -22.2388   -0.0339   28.4311 C   0  0  0  0  0  0  0  0  0  0  0  0
  -22.6018   -1.4692   28.6423 C   0  0  0  0  0  0  0  0  0  0  0  0
  -23.8302   -1.6349   28.9732 C   0  0  0  0  0  0  0  0  0  0  0  0
  -23.8447   -1.3835   31.5262 C   0  0  0  0  0  0  0  0  0  0  0  0
  2  7  1  0
  7  8  1  0
  4  9  1  0
  9 10  1  0
 11 12  1  0
  9 14  1  0
 13 14  1  0
  9 15  1  0
 10 11  1  0
 12 13  1  0
  1  2  2  0
  2  5  1  0
  5  6  2  0
  6  4  1  0
  4  3  2  0
  3  1  1  0
M  END

$$$$
