No_2666-gen_results/8p0m/2024-11-27-11-27-31/
     RDKit          3D

 32 35  0  0  0  0  0  0  0  0999 V2000
  -28.0162   -0.8135   28.8779 C   0  0  0  0  0  0  0  0  0  0  0  0
  -27.0636   -0.1189   28.6079 C   0  0  0  0  0  0  0  0  0  0  0  0
  -27.0010    0.6913   27.4910 C   0  0  0  0  0  0  0  0  0  0  0  0
  -25.8548    1.4825   27.0830 C   0  0  0  0  0  0  0  0  0  0  0  0
  -24.9008    1.3894   27.5922 C   0  0  0  0  0  0  0  0  0  0  0  0
  -23.6083    2.1374   27.3083 C   0  0  0  0  0  0  0  0  0  0  0  0
  -22.4436    2.0199   28.0924 C   0  0  0  0  0  0  0  0  0  0  0  0
  -22.4713    1.1022   29.1425 C   0  0  0  0  0  0  0  0  0  0  0  0
  -24.5052    0.6048   28.8534 C   0  0  0  0  0  0  0  0  0  0  0  0
  -23.3866    0.4726   29.4849 C   0  0  0  0  0  0  0  0  0  0  0  0
  -25.7597   -0.2385   29.2707 C   0  0  0  0  0  0  0  0  0  0  0  0
  -27.9113   -1.5015   30.1013 N   0  0  0  0  0  0  0  0  0  0  0  0
  -29.1854   -0.6329   28.5178 O   0  0  0  0  0  0  0  0  0  0  0  0
  -29.0173   -2.3530   30.6851 C   0  0  0  0  0  0  0  0  0  0  0  0
  -23.5800    3.0128   26.3029 F   0  0  0  0  0  0  0  0  0  0  0  0
  -23.3520   -0.4920   30.6532 C   0  0  0  0  0  0  0  0  0  0  0  0
  -23.2204   -1.4879   31.0165 N   0  0  0  0  0  0  0  0  0  0  0  0
  -23.7546    0.4137   31.9959 C   0  0  0  0  0  0  0  0  0  0  0  0
  -29.3891   -2.0199   31.8874 C   0  0  0  0  0  0  0  0  0  0  0  0
  -29.8856   -3.0458   32.6527 C   0  0  0  0  0  0  0  0  0  0  0  0
  -30.6247   -3.9324   32.0172 C   0  0  0  0  0  0  0  0  0  0  0  0
  -30.1511   -4.4207   30.7310 C   0  0  0  0  0  0  0  0  0  0  0  0
  -29.5151   -3.3748   29.9781 C   0  0  0  0  0  0  0  0  0  0  0  0
  -24.6086    1.5175   31.9475 C   0  0  0  0  0  0  0  0  0  0  0  0
  -25.5276    1.8564   32.9395 C   0  0  0  0  0  0  0  0  0  0  0  0
  -26.1784    3.0717   32.9299 C   0  0  0  0  0  0  0  0  0  0  0  0
  -25.8774    4.0188   31.9228 C   0  0  0  0  0  0  0  0  0  0  0  0
  -24.9427    3.7125   30.9559 C   0  0  0  0  0  0  0  0  0  0  0  0
  -24.2823    2.5372   31.0063 C   0  0  0  0  0  0  0  0  0  0  0  0
  -24.8293    4.6252   29.9958 O   0  0  0  0  0  0  0  0  0  0  0  0
  -25.5971    5.6975   29.9976 C   0  0  0  0  0  0  0  0  0  0  0  0
  -25.1869    6.7469   30.3285 C   0  0  0  0  0  0  0  0  0  0  0  0
  1  2  1  0
  1 12  1  0
  1 13  2  0
 12 14  1  0
  6 15  1  0
 10 16  1  0
 16 17  1  0
 16 18  1  0
 18 24  1  0
 28 30  1  0
 30 31  1  0
 31 32  2  0
 14 19  2  0
 19 20  1  0
 20 21  2  0
 21 22  1  0
 22 23  2  0
 23 14  1  0
 24 25  2  0
 25 26  1  0
 26 27  2  0
 27 28  1  0
 28 29  2  0
 29 24  1  0
  5  6  1  0
  6  7  2  0
  7  8  1  0
  8 10  2  0
 10  9  1  0
  2  3  2  0
  3  4  1  0
  4  5  2  0
  5  9  1  0
  9 11  2  0
 11  2  1  0
M  END

$$$$
