No_2502-gen_results/8p0m/2024-11-27-11-27-31/
     RDKit          3D

 17 19  0  0  0  0  0  0  0  0999 V2000
  -28.0162   -0.8135   28.8779 C   0  0  0  0  0  0  0  0  0  0  0  0
  -27.0636   -0.1189   28.6079 C   0  0  0  0  0  0  0  0  0  0  0  0
  -27.0010    0.6913   27.4910 C   0  0  0  0  0  0  0  0  0  0  0  0
  -28.1373    0.7363   26.6350 C   0  0  0  0  0  0  0  0  0  0  0  0
  -29.2360    0.0765   27.0690 C   0  0  0  0  0  0  0  0  0  0  0  0
  -29.2177   -0.6429   28.1747 C   0  0  0  0  0  0  0  0  0  0  0  0
  -30.4152    0.1590   26.1820 C   0  0  0  0  0  0  0  0  0  0  0  0
  -31.2774   -0.5117   26.4083 O   0  0  0  0  0  0  0  0  0  0  0  0
  -30.4220    0.9338   25.1099 O   0  0  0  0  0  0  0  0  0  0  0  0
  -25.6156   -0.1017   29.2456 C   0  0  0  0  0  0  0  0  0  0  0  0
  -24.6123    0.4987   28.8523 C   0  0  0  0  0  0  0  0  0  0  0  0
  -24.7276    1.3343   27.6403 C   0  0  0  0  0  0  0  0  0  0  0  0
  -25.8086    1.3738   26.9702 C   0  0  0  0  0  0  0  0  0  0  0  0
  -23.4388    2.0684   27.2697 C   0  0  0  0  0  0  0  0  0  0  0  0
  -22.2574    1.6779   27.7756 N   0  0  0  0  0  0  0  0  0  0  0  0
  -22.1920    0.8624   28.8816 C   0  0  0  0  0  0  0  0  0  0  0  0
  -23.2782    0.2916   29.3884 C   0  0  0  0  0  0  0  0  0  0  0  0
  5  7  1  0
  7  8  1  0
  7  9  2  0
  1  2  2  0
  3  4  2  0
  4  5  1  0
  5  6  2  0
  6  1  1  0
  2  3  1  0
  3 13  1  0
 13 12  2  0
 11 10  2  0
 10  2  1  0
 11 12  1  0
 12 14  1  0
 14 15  2  0
 15 16  1  0
 16 17  2  0
 17 11  1  0
M  END

$$$$
