No_2388-gen_results/8p0m/2024-11-27-11-27-31/
     RDKit          3D

 14 15  0  0  0  0  0  0  0  0999 V2000
  -28.0162   -0.8135   28.8779 C   0  0  0  0  0  0  0  0  0  0  0  0
  -27.0636   -0.1189   28.6079 C   0  0  0  0  0  0  0  0  0  0  0  0
  -26.9716    0.7139   27.5060 C   0  0  0  0  0  0  0  0  0  0  0  0
  -25.8206    1.4910   27.1160 C   0  0  0  0  0  0  0  0  0  0  0  0
  -24.6562    1.4242   27.9180 C   0  0  0  0  0  0  0  0  0  0  0  0
  -24.6847    0.5901   29.0659 C   0  0  0  0  0  0  0  0  0  0  0  0
  -25.8099   -0.1265   29.3338 C   0  0  0  0  0  0  0  0  0  0  0  0
  -29.1935   -0.1896   29.0164 N   0  0  0  0  0  0  0  0  0  0  0  0
  -23.4634    2.1759   27.6079 C   0  0  0  0  0  0  0  0  0  0  0  0
  -22.3529    1.8769   28.1375 O   0  0  0  0  0  0  0  0  0  0  0  0
  -23.4602    2.9302   26.5464 O   0  0  0  0  0  0  0  0  0  0  0  0
  -29.4882    0.7633   28.3684 C   0  0  0  0  0  0  0  0  0  0  0  0
  -30.6307    1.2927   28.3143 F   0  0  0  0  0  0  0  0  0  0  0  0
  -28.6134    1.5054   27.4158 C   0  0  0  0  0  0  0  0  0  0  0  0
  5  9  1  0
  9 10  1  0
  9 11  2  0
 12 13  1  0
  3  4  1  0
  4  5  2  0
  5  6  1  0
  6  7  2  0
  7  2  1  0
  1  2  2  0
  2  3  1  0
  3 14  2  0
 14 12  1  0
 12  8  2  0
  8  1  1  0
M  END

$$$$
