No_2759-gen_results/8p0m/2024-11-27-11-27-31/
     RDKit          3D

 35 37  0  0  0  0  0  0  0  0999 V2000
  -28.0162   -0.8135   28.8779 C   0  0  0  0  0  0  0  0  0  0  0  0
  -28.4690   -0.7850   29.8287 C   0  0  0  0  0  0  0  0  0  0  0  0
  -26.5455   -0.8762   28.8500 C   0  0  0  0  0  0  0  0  0  0  0  0
  -25.8041   -1.0324   30.0571 C   0  0  0  0  0  0  0  0  0  0  0  0
  -27.9437   -0.9869   31.2075 C   0  0  0  0  0  0  0  0  0  0  0  0
  -24.4008   -1.0969   30.0965 C   0  0  0  0  0  0  0  0  0  0  0  0
  -26.5612   -1.0746   31.2270 C   0  0  0  0  0  0  0  0  0  0  0  0
  -23.7342    0.1405   29.9379 C   0  0  0  0  0  0  0  0  0  0  0  0
  -22.4073    0.1808   29.4004 C   0  0  0  0  0  0  0  0  0  0  0  0
  -21.7778   -1.0662   29.1520 C   0  0  0  0  0  0  0  0  0  0  0  0
  -22.5827   -2.1747   29.0453 C   0  0  0  0  0  0  0  0  0  0  0  0
  -23.8344   -2.2779   29.5597 C   0  0  0  0  0  0  0  0  0  0  0  0
  -30.0824   -0.6696   29.8864 C   0  0  0  0  0  0  0  0  0  0  0  0
  -30.7935   -1.4345   30.3542 O   0  0  0  0  0  0  0  0  0  0  0  0
  -30.5347    0.4234   29.2205 N   0  0  0  0  0  0  0  0  0  0  0  0
  -31.9416    0.6510   29.0775 C   0  0  0  0  0  0  0  0  0  0  0  0
  -32.2667    1.6878   28.6159 C   0  0  0  0  0  0  0  0  0  0  0  0
  -31.3188    2.6574   28.0411 C   0  0  0  0  0  0  0  0  0  0  0  0
  -29.9375    2.3873   28.1357 C   0  0  0  0  0  0  0  0  0  0  0  0
  -29.5595    1.3522   28.7517 C   0  0  0  0  0  0  0  0  0  0  0  0
  -24.2926    1.4233   30.4739 C   0  0  0  0  0  0  0  0  0  0  0  0
  -24.6861    2.3005   29.6502 O   0  0  0  0  0  0  0  0  0  0  0  0
  -24.4162    1.5519   31.7772 O   0  0  0  0  0  0  0  0  0  0  0  0
  -25.6557    3.2392   30.0170 C   0  0  0  0  0  0  0  0  0  0  0  0
  -26.1626    3.9949   28.9312 C   0  0  0  0  0  0  0  0  0  0  0  0
  -26.0693    3.6052   27.8858 O   0  0  0  0  0  0  0  0  0  0  0  0
  -26.9796    5.0659   29.2340 N   0  0  0  0  0  0  0  0  0  0  0  0
  -27.5352    5.9023   28.1882 C   0  0  0  0  0  0  0  0  0  0  0  0
  -26.1610    3.3179   31.1742 O   0  0  0  0  0  0  0  0  0  0  0  0
  -25.6950   -0.7689   27.3665 Cl  0  0  0  0  0  0  0  0  0  0  0  0
  -27.1713    7.2727   28.5192 C   0  0  0  0  0  0  0  0  0  0  0  0
  -26.5092    7.6795   29.5110 C   0  0  0  0  0  0  0  0  0  0  0  0
  -26.0481    8.9613   29.7174 C   0  0  0  0  0  0  0  0  0  0  0  0
  -26.3822    9.9343   28.7771 C   0  0  0  0  0  0  0  0  0  0  0  0
  -27.6825    8.2964   27.5192 C   0  0  0  0  0  0  0  0  0  0  0  0
  4  6  1  0
  2 13  1  0
 13 14  2  0
 13 15  1  0
 15 16  1  0
 17 18  1  0
 15 20  1  0
 19 20  1  0
  8 21  1  0
 21 22  1  0
 21 23  2  0
 22 24  1  0
 24 25  1  0
 25 26  2  0
 25 27  1  0
 27 28  2  3
 24 29  2  0
  3 30  1  0
 28 31  1  0
 31 32  1  0
 32 33  1  0
 33 34  2  0
 31 35  1  0
 16 17  1  0
 18 19  1  0
  6  8  2  0
  8  9  1  0
  9 10  2  0
 10 11  1  0
 11 12  2  0
 12  6  1  0
  1  2  2  0
  2  5  1  0
  5  7  2  0
  7  4  1  0
  4  3  2  0
  3  1  1  0
M  END

$$$$
