No_2999-gen_results/8p0m/2024-11-27-11-27-31/
     RDKit          3D

 23 24  0  0  0  0  0  0  0  0999 V2000
  -28.0162   -0.8135   28.8779 C   0  0  0  0  0  0  0  0  0  0  0  0
  -27.0636   -0.1189   28.6079 C   0  0  0  0  0  0  0  0  0  0  0  0
  -25.7923   -0.4302   29.0761 C   0  0  0  0  0  0  0  0  0  0  0  0
  -24.5456    0.3494   28.8225 C   0  0  0  0  0  0  0  0  0  0  0  0
  -24.6586    1.4196   27.8878 C   0  0  0  0  0  0  0  0  0  0  0  0
  -23.5403    2.1791   27.5500 C   0  0  0  0  0  0  0  0  0  0  0  0
  -22.2925    1.7429   28.0473 C   0  0  0  0  0  0  0  0  0  0  0  0
  -22.1712    0.7080   28.9284 C   0  0  0  0  0  0  0  0  0  0  0  0
  -23.3345   -0.0624   29.3081 C   0  0  0  0  0  0  0  0  0  0  0  0
  -27.9466   -1.8823   29.8708 C   0  0  0  0  0  0  0  0  0  0  0  0
  -26.7159   -2.3287   30.3060 C   0  0  0  0  0  0  0  0  0  0  0  0
  -25.5921   -1.5643   29.9672 C   0  0  0  0  0  0  0  0  0  0  0  0
  -29.1228   -2.6879   30.2451 C   0  0  0  0  0  0  0  0  0  0  0  0
  -30.2167   -2.1838   30.2274 O   0  0  0  0  0  0  0  0  0  0  0  0
  -28.9567   -3.8658   30.7164 O   0  0  0  0  0  0  0  0  0  0  0  0
  -23.6463    3.1736   26.6959 O   0  0  0  0  0  0  0  0  0  0  0  0
  -24.9809    3.1741   26.0869 C   0  0  0  0  0  0  0  0  0  0  0  0
  -31.4195   -2.9338   30.2915 C   0  0  0  0  0  0  0  0  0  0  0  0
  -31.7127   -3.4818   31.2564 C   0  0  0  0  0  0  0  0  0  0  0  0
  -31.0764   -3.0862   32.4588 C   0  0  0  0  0  0  0  0  0  0  0  0
  -31.3871   -3.8789   33.4956 F   0  0  0  0  0  0  0  0  0  0  0  0
  -29.7325   -3.2198   32.4176 F   0  0  0  0  0  0  0  0  0  0  0  0
  -31.4804   -1.8853   32.8186 F   0  0  0  0  0  0  0  0  0  0  0  0
  3  4  1  0
 10 13  1  0
 13 14  1  0
 13 15  2  0
  6 16  1  0
 16 17  1  0
 14 18  1  0
 18 19  2  3
 19 20  1  0
 20 21  1  0
 20 22  1  0
 20 23  1  0
  1  2  2  0
  2  3  1  0
  3 12  2  0
 12 11  1  0
 11 10  2  0
 10  1  1  0
  4  5  2  0
  5  6  1  0
  6  7  2  0
  7  8  1  0
  8  9  2  0
  9  4  1  0
M  END

$$$$
