No_2318-gen_results/8p0m/2024-11-27-11-27-31/
     RDKit          3D

 30 31  0  0  0  0  0  0  0  0999 V2000
  -28.0162   -0.8135   28.8779 C   0  0  0  0  0  0  0  0  0  0  0  0
  -27.0636   -0.1190   28.6079 C   0  0  0  0  0  0  0  0  0  0  0  0
  -27.0010    0.6913   27.4910 C   0  0  0  0  0  0  0  0  0  0  0  0
  -28.1373    0.7363   26.6350 C   0  0  0  0  0  0  0  0  0  0  0  0
  -29.2360    0.0765   27.0690 C   0  0  0  0  0  0  0  0  0  0  0  0
  -29.2177   -0.6429   28.1747 C   0  0  0  0  0  0  0  0  0  0  0  0
  -30.4152    0.1590   26.1820 C   0  0  0  0  0  0  0  0  0  0  0  0
  -31.2292   -0.6372   26.4315 F   0  0  0  0  0  0  0  0  0  0  0  0
  -30.8752    1.4224   26.2396 F   0  0  0  0  0  0  0  0  0  0  0  0
  -30.0320   -0.0167   24.8720 F   0  0  0  0  0  0  0  0  0  0  0  0
  -25.7152    1.4039   27.0808 C   0  0  0  0  0  0  0  0  0  0  0  0
  -25.4252    2.3563   27.8129 O   0  0  0  0  0  0  0  0  0  0  0  0
  -25.0318    1.0768   26.0913 O   0  0  0  0  0  0  0  0  0  0  0  0
  -28.0631   -1.6448   30.1412 C   0  0  0  0  0  0  0  0  0  0  0  0
  -28.2424   -2.8810   29.9779 O   0  0  0  0  0  0  0  0  0  0  0  0
  -27.7288   -1.1776   31.2646 O   0  0  0  0  0  0  0  0  0  0  0  0
  -24.3654    3.0045   27.8041 C   0  0  0  0  0  0  0  0  0  0  0  0
  -23.1568    2.1492   27.8721 C   0  0  0  0  0  0  0  0  0  0  0  0
  -22.3310    2.2369   27.0549 O   0  0  0  0  0  0  0  0  0  0  0  0
  -22.8987    1.5949   29.0537 O   0  0  0  0  0  0  0  0  0  0  0  0
  -22.3544    0.3044   29.1073 C   0  0  0  0  0  0  0  0  0  0  0  0
  -23.2181   -0.5887   29.9703 C   0  0  0  0  0  0  0  0  0  0  0  0
  -23.5954   -1.8172   29.3867 C   0  0  0  0  0  0  0  0  0  0  0  0
  -24.5555   -2.5671   30.1938 C   0  0  0  0  0  0  0  0  0  0  0  0
  -24.8922   -2.0392   31.5062 C   0  0  0  0  0  0  0  0  0  0  0  0
  -24.4107   -0.8415   32.0031 C   0  0  0  0  0  0  0  0  0  0  0  0
  -23.5936   -0.0532   31.1768 C   0  0  0  0  0  0  0  0  0  0  0  0
  -25.0356   -3.6821   29.7468 N   0  0  0  0  0  0  0  0  0  0  0  0
  -26.2712   -4.0379   29.4559 C   0  0  0  0  0  0  0  0  0  0  0  0
  -26.4247   -5.3090   29.0450 N   0  0  0  0  0  0  0  0  0  0  0  0
  5  7  1  0
  7  8  1  0
  7  9  1  0
  7 10  1  0
  3 11  1  0
 11 12  1  0
 11 13  2  0
  1 14  1  0
 14 15  1  0
 14 16  2  0
 12 17  1  0
 17 18  1  0
 18 19  2  0
 18 20  1  0
 20 21  1  0
 21 22  1  0
 24 28  1  0
 28 29  1  0
 29 30  1  0
  1  2  2  0
  2  3  1  0
  3  4  2  0
  4  5  1  0
  5  6  2  0
  6  1  1  0
 22 23  2  0
 23 24  1  0
 24 25  2  0
 25 26  1  0
 26 27  2  0
 27 22  1  0
M  END

$$$$
