No_2426-gen_results/8p0m/2024-11-27-11-27-31/
     RDKit          3D

 32 36  0  0  0  0  0  0  0  0999 V2000
  -28.0162   -0.8135   28.8779 C   0  0  0  0  0  0  0  0  0  0  0  0
  -28.4690   -0.7850   29.8287 C   0  0  0  0  0  0  0  0  0  0  0  0
  -28.1960    0.3478   28.0550 C   0  0  0  0  0  0  0  0  0  0  0  0
  -29.0191    1.3501   28.3782 C   0  0  0  0  0  0  0  0  0  0  0  0
  -28.3170   -1.9812   30.8560 C   0  0  0  0  0  0  0  0  0  0  0  0
  -29.5950    1.2859   29.6049 C   0  0  0  0  0  0  0  0  0  0  0  0
  -29.3465    0.2093   30.3749 C   0  0  0  0  0  0  0  0  0  0  0  0
  -29.2155   -2.9170   30.8674 N   0  0  0  0  0  0  0  0  0  0  0  0
  -29.9488   -3.0427   31.8134 C   0  0  0  0  0  0  0  0  0  0  0  0
  -30.8342   -3.5134   32.0795 C   0  0  0  0  0  0  0  0  0  0  0  0
  -31.5843   -3.5863   33.3465 C   0  0  0  0  0  0  0  0  0  0  0  0
  -31.0434   -2.8378   34.3683 C   0  0  0  0  0  0  0  0  0  0  0  0
  -29.4112   -2.1792   33.1428 C   0  0  0  0  0  0  0  0  0  0  0  0
  -30.0095   -2.2168   34.2562 N   0  0  0  0  0  0  0  0  0  0  0  0
  -28.1769   -1.4338   32.9030 C   0  0  0  0  0  0  0  0  0  0  0  0
  -27.9385   -1.2275   32.2338 C   0  0  0  0  0  0  0  0  0  0  0  0
  -26.8995   -2.6667   30.4384 C   0  0  0  0  0  0  0  0  0  0  0  0
  -27.5724    0.3136   26.7777 O   0  0  0  0  0  0  0  0  0  0  0  0
  -26.6043    1.2728   26.4997 C   0  0  0  0  0  0  0  0  0  0  0  0
  -25.3674    0.6978   26.3324 C   0  0  0  0  0  0  0  0  0  0  0  0
  -24.8168   -0.2180   27.0000 C   0  0  0  0  0  0  0  0  0  0  0  0
  -24.5700   -0.1338   28.4228 C   0  0  0  0  0  0  0  0  0  0  0  0
  -24.0526   -1.1720   29.1799 C   0  0  0  0  0  0  0  0  0  0  0  0
  -23.7026   -0.9100   30.5338 C   0  0  0  0  0  0  0  0  0  0  0  0
  -23.9056    0.2861   30.9855 C   0  0  0  0  0  0  0  0  0  0  0  0
  -24.5947    1.0593   29.2802 C   0  0  0  0  0  0  0  0  0  0  0  0
  -24.3088    1.2464   30.5841 C   0  0  0  0  0  0  0  0  0  0  0  0
  -29.4931   -3.6695   29.7308 C   0  0  0  0  0  0  0  0  0  0  0  0
  -30.7122   -4.3997   29.7664 C   0  0  0  0  0  0  0  0  0  0  0  0
  -31.3383   -4.3885   30.9961 C   0  0  0  0  0  0  0  0  0  0  0  0
  -30.5044    2.3952   30.0931 C   0  0  0  0  0  0  0  0  0  0  0  0
  -31.4512    2.2449   30.6615 O   0  0  0  0  0  0  0  0  0  0  0  0
  2  5  1  0
  5  8  1  0
  8  9  1  0
 13 15  1  0
  5 16  1  0
 15 16  1  0
  5 17  1  0
  3 18  1  0
 18 19  1  0
 19 20  2  3
 20 21  1  0
 21 22  1  0
  8 28  1  0
 10 30  1  0
 29 30  1  0
  6 31  1  0
 31 32  2  0
 29 28  1  0
  9 13  1  0
 13 14  2  0
 14 12  1  0
 12 11  2  0
 11 10  1  0
 10  9  2  0
 22 23  2  0
 23 24  1  0
 24 25  2  0
 25 27  1  0
 27 26  2  0
 26 22  1  0
  1  2  2  0
  2  7  1  0
  7  6  2  0
  6  4  1  0
  4  3  2  0
  3  1  1  0
M  END

$$$$
