No_2878-gen_results/8p0m/2024-11-27-11-27-31/
     RDKit          3D

 35 39  0  0  0  0  0  0  0  0999 V2000
  -28.1229   -1.3353   28.4874 O   0  0  0  0  0  0  0  0  0  0  0  0
  -27.0637   -0.8242   28.8687 C   0  0  0  0  0  0  0  0  0  0  0  0
  -26.9592    0.0926   29.7582 C   0  0  0  0  0  0  0  0  0  0  0  0
  -25.8802   -1.1117   28.1591 O   0  0  0  0  0  0  0  0  0  0  0  0
  -26.1463    0.9981   29.8682 C   0  0  0  0  0  0  0  0  0  0  0  0
  -26.0041    2.0723   30.8442 C   0  0  0  0  0  0  0  0  0  0  0  0
  -27.0226    2.0232   31.8501 C   0  0  0  0  0  0  0  0  0  0  0  0
  -27.9346    1.0186   31.8131 C   0  0  0  0  0  0  0  0  0  0  0  0
  -27.9506    0.0540   30.8818 C   0  0  0  0  0  0  0  0  0  0  0  0
  -26.9447    3.1011   32.8815 C   0  0  0  0  0  0  0  0  0  0  0  0
  -27.2974    2.8933   34.0156 N   0  0  0  0  0  0  0  0  0  0  0  0
  -26.8783    4.3239   32.4688 O   0  0  0  0  0  0  0  0  0  0  0  0
  -27.3284    3.9599   35.0910 C   0  0  0  0  0  0  0  0  0  0  0  0
  -27.2526    1.5745   34.6680 C   0  0  0  0  0  0  0  0  0  0  0  0
  -24.6079   -0.8998   28.5884 C   0  0  0  0  0  0  0  0  0  0  0  0
  -23.6662   -1.8202   28.2396 C   0  0  0  0  0  0  0  0  0  0  0  0
  -23.0786   -2.0502   29.3893 C   0  0  0  0  0  0  0  0  0  0  0  0
  -22.7809   -0.9558   30.2837 C   0  0  0  0  0  0  0  0  0  0  0  0
  -24.2212   -0.0889   29.6825 N   0  0  0  0  0  0  0  0  0  0  0  0
  -23.6129    1.2075   29.7470 C   0  0  0  0  0  0  0  0  0  0  0  0
  -25.0321    1.3541   28.8069 C   0  0  0  0  0  0  0  0  0  0  0  0
  -25.0050    2.9538   28.5947 C   0  0  0  0  0  0  0  0  0  0  0  0
  -25.8930    3.2916   27.4410 C   0  0  0  0  0  0  0  0  0  0  0  0
  -26.1822    4.5327   27.3383 C   0  0  0  0  0  0  0  0  0  0  0  0
  -25.4641    5.6347   27.9923 C   0  0  0  0  0  0  0  0  0  0  0  0
  -25.7928    6.9794   27.8421 C   0  0  0  0  0  0  0  0  0  0  0  0
  -25.0055    8.0129   28.4933 C   0  0  0  0  0  0  0  0  0  0  0  0
  -24.5375    7.7304   29.7313 C   0  0  0  0  0  0  0  0  0  0  0  0
  -24.6652    6.3581   30.2082 C   0  0  0  0  0  0  0  0  0  0  0  0
  -25.0779    5.3535   29.4036 C   0  0  0  0  0  0  0  0  0  0  0  0
  -24.7605    3.8470   29.4997 O   0  0  0  0  0  0  0  0  0  0  0  0
  -26.3411    2.3068   26.5606 C   0  0  0  0  0  0  0  0  0  0  0  0
  -25.5288    2.1347   25.3513 C   0  0  0  0  0  0  0  0  0  0  0  0
  -25.1754    0.8004   25.1586 C   0  0  0  0  0  0  0  0  0  0  0  0
  -27.7662    2.4477   26.2016 C   0  0  0  0  0  0  0  0  0  0  0  0
  1  2  2  0
  2  3  1  0
  2  4  1  0
  7 10  1  0
 10 11  1  0
 10 12  2  0
 11 13  1  0
 11 14  1  0
  4 15  1  0
 15 16  2  0
 16 17  1  0
 17 18  2  0
 15 19  1  0
 18 19  1  0
 19 20  1  0
  5 21  1  0
 20 21  1  0
 21 22  1  0
 22 23  1  0
 23 24  2  0
 24 25  1  0
 22 31  1  0
 30 31  1  0
 23 32  1  0
 32 33  2  3
 33 34  1  0
 32 35  1  0
  3  5  2  0
  5  6  1  0
  6  7  2  0
  7  8  1  0
  8  9  2  0
  9  3  1  0
 25 26  2  0
 26 27  1  0
 27 28  2  0
 28 29  1  0
 29 30  2  0
 30 25  1  0
M  END

$$$$
