No_2065-gen_results/8p0m/2024-11-27-11-27-31/
     RDKit          3D

 13 14  0  0  0  0  0  0  0  0999 V2000
  -28.0162   -0.8135   28.8779 C   0  0  0  0  0  0  0  0  0  0  0  0
  -27.0636   -0.1189   28.6079 C   0  0  0  0  0  0  0  0  0  0  0  0
  -25.7647   -0.3897   29.0360 C   0  0  0  0  0  0  0  0  0  0  0  0
  -25.5296   -1.5302   29.9014 C   0  0  0  0  0  0  0  0  0  0  0  0
  -26.6888   -2.2893   30.1810 C   0  0  0  0  0  0  0  0  0  0  0  0
  -27.8727   -1.9508   29.7373 C   0  0  0  0  0  0  0  0  0  0  0  0
  -24.5491    0.4100   28.7341 C   0  0  0  0  0  0  0  0  0  0  0  0
  -24.0931    1.3779   29.5761 C   0  0  0  0  0  0  0  0  0  0  0  0
  -23.0089    2.0595   29.1847 N   0  0  0  0  0  0  0  0  0  0  0  0
  -24.7048    1.7156   30.6626 O   0  0  0  0  0  0  0  0  0  0  0  0
  -22.2184    1.8298   28.0476 C   0  0  0  0  0  0  0  0  0  0  0  0
  -23.8059    0.1744   27.5018 C   0  0  0  0  0  0  0  0  0  0  0  0
  -22.7245    0.9109   27.2566 C   0  0  0  0  0  0  0  0  0  0  0  0
  3  7  1  0
  8 10  1  0
  1  2  2  0
  2  3  1  0
  3  4  2  0
  4  5  1  0
  5  6  2  0
  6  1  1  0
  7  8  2  0
  8  9  1  0
  9 11  2  0
 11 13  1  0
 13 12  2  0
 12  7  1  0
M  END

$$$$
