No_2249-gen_results/8p0m/2024-11-27-11-27-31/
     RDKit          3D

 19 20  0  0  0  0  0  0  0  0999 V2000
  -28.0162   -0.8135   28.8779 C   0  0  0  0  0  0  0  0  0  0  0  0
  -27.0636   -0.1189   28.6079 C   0  0  0  0  0  0  0  0  0  0  0  0
  -26.9716    0.7139   27.5060 C   0  0  0  0  0  0  0  0  0  0  0  0
  -28.1053    0.7744   26.6421 C   0  0  0  0  0  0  0  0  0  0  0  0
  -29.2041    0.1179   27.0477 C   0  0  0  0  0  0  0  0  0  0  0  0
  -29.2127   -0.6088   28.1281 C   0  0  0  0  0  0  0  0  0  0  0  0
  -30.3709    0.2326   26.1381 C   0  0  0  0  0  0  0  0  0  0  0  0
  -30.3086    0.1051   24.9412 O   0  0  0  0  0  0  0  0  0  0  0  0
  -31.5786    0.2663   26.6747 O   0  0  0  0  0  0  0  0  0  0  0  0
  -25.6671    1.4055   27.1237 C   0  0  0  0  0  0  0  0  0  0  0  0
  -24.5337    1.0352   27.7283 C   0  0  0  0  0  0  0  0  0  0  0  0
  -24.2986    0.1217   28.7151 C   0  0  0  0  0  0  0  0  0  0  0  0
  -25.5993   -0.4857   29.1694 C   0  0  0  0  0  0  0  0  0  0  0  0
  -23.2264    1.7895   27.3608 C   0  0  0  0  0  0  0  0  0  0  0  0
  -23.3488    2.7015   26.5058 F   0  0  0  0  0  0  0  0  0  0  0  0
  -22.6322    2.4232   28.4719 F   0  0  0  0  0  0  0  0  0  0  0  0
  -22.2791    0.9433   26.9254 F   0  0  0  0  0  0  0  0  0  0  0  0
  -25.4875   -1.4384   30.2757 C   0  0  0  0  0  0  0  0  0  0  0  0
  -25.2031   -2.5514   29.9383 O   0  0  0  0  0  0  0  0  0  0  0  0
  5  7  1  0
  7  8  2  0
  7  9  1  0
 11 14  1  0
 14 15  1  0
 14 16  1  0
 14 17  1  0
 13 18  1  0
 18 19  2  0
  3 10  1  0
 10 11  2  0
 11 12  1  0
 12 13  2  0
 13  2  1  0
  1  2  2  0
  2  3  1  0
  3  4  2  0
  4  5  1  0
  5  6  2  0
  6  1  1  0
M  END

$$$$
