No_2831-gen_results/8p0m/2024-11-27-11-27-31/
     RDKit          3D

 13 13  0  0  0  0  0  0  0  0999 V2000
  -28.0162   -0.8135   28.8779 C   0  0  0  0  0  0  0  0  0  0  0  0
  -28.4690   -0.7850   29.8287 C   0  0  0  0  0  0  0  0  0  0  0  0
  -26.5042   -0.7777   28.8766 C   0  0  0  0  0  0  0  0  0  0  0  0
  -25.8103   -0.8531   30.1028 C   0  0  0  0  0  0  0  0  0  0  0  0
  -27.9906   -0.8916   31.2257 C   0  0  0  0  0  0  0  0  0  0  0  0
  -26.6042   -0.8676   31.2652 C   0  0  0  0  0  0  0  0  0  0  0  0
  -24.5004   -0.7818   30.1446 O   0  0  0  0  0  0  0  0  0  0  0  0
  -23.8204   -0.0416   30.9033 C   0  0  0  0  0  0  0  0  0  0  0  0
  -30.0977   -0.8680   29.8481 C   0  0  0  0  0  0  0  0  0  0  0  0
  -30.5176   -0.3765   28.8979 O   0  0  0  0  0  0  0  0  0  0  0  0
  -30.7654   -1.0136   30.9318 O   0  0  0  0  0  0  0  0  0  0  0  0
  -22.5459    0.5167   30.2825 C   0  0  0  0  0  0  0  0  0  0  0  0
  -24.2030    0.4212   32.1713 C   0  0  0  0  0  0  0  0  0  0  0  0
  4  7  1  0
  7  8  1  0
  2  9  1  0
  9 10  2  0
  9 11  1  0
  8 12  2  0
  8 13  1  0
  1  2  2  0
  2  5  1  0
  5  6  2  0
  6  4  1  0
  4  3  2  0
  3  1  1  0
M  END

$$$$
