No_2289-gen_results/8p0m/2024-11-27-11-27-31/
     RDKit          3D

 16 17  0  0  0  0  0  0  0  0999 V2000
  -28.0162   -0.8135   28.8779 C   0  0  0  0  0  0  0  0  0  0  0  0
  -27.0636   -0.1189   28.6079 C   0  0  0  0  0  0  0  0  0  0  0  0
  -26.9287    1.1713   29.0083 C   0  0  0  0  0  0  0  0  0  0  0  0
  -27.9560    1.7411   29.7840 C   0  0  0  0  0  0  0  0  0  0  0  0
  -29.0569   -0.3271   29.7466 C   0  0  0  0  0  0  0  0  0  0  0  0
  -28.9828    0.9722   30.1516 C   0  0  0  0  0  0  0  0  0  0  0  0
  -25.5945   -0.7909   27.5783 Br  0  0  0  0  0  0  0  0  0  0  0  0
  -30.0834    1.5124   31.0122 C   0  0  0  0  0  0  0  0  0  0  0  0
  -29.7778    1.7525   32.2169 C   0  0  0  0  0  0  0  0  0  0  0  0
  -28.4974    1.8314   32.6814 C   0  0  0  0  0  0  0  0  0  0  0  0
  -28.1642    2.1903   34.0894 C   0  0  0  0  0  0  0  0  0  0  0  0
  -29.1374    2.3932   34.9143 C   0  0  0  0  0  0  0  0  0  0  0  0
  -30.4278    2.3369   34.4929 C   0  0  0  0  0  0  0  0  0  0  0  0
  -30.7338    2.0461   33.2235 C   0  0  0  0  0  0  0  0  0  0  0  0
  -30.6316    2.6284   30.1941 C   0  0  0  0  0  0  0  0  0  0  0  0
  -31.1651    0.3037   30.9716 C   0  0  0  0  0  0  0  0  0  0  0  0
  2  7  1  0
  6  8  1  0
  8  9  1  0
  8 15  1  0
  8 16  1  0
  1  2  2  0
  2  3  1  0
  3  4  2  0
  4  6  1  0
  6  5  2  0
  5  1  1  0
  9 10  2  0
 10 11  1  0
 11 12  2  0
 12 13  1  0
 13 14  2  0
 14  9  1  0
M  END

$$$$
