No_2414-gen_results/8p0m/2024-11-27-11-27-31/
     RDKit          3D

 19 20  0  0  0  0  0  0  0  0999 V2000
  -28.0162   -0.8135   28.8779 C   0  0  0  0  0  0  0  0  0  0  0  0
  -27.0636   -0.1189   28.6079 C   0  0  0  0  0  0  0  0  0  0  0  0
  -27.0010    0.6913   27.4910 C   0  0  0  0  0  0  0  0  0  0  0  0
  -28.1373    0.7363   26.6350 C   0  0  0  0  0  0  0  0  0  0  0  0
  -29.2360    0.0765   27.0690 C   0  0  0  0  0  0  0  0  0  0  0  0
  -29.2177   -0.6429   28.1747 C   0  0  0  0  0  0  0  0  0  0  0  0
  -30.7399    0.1742   25.9746 Br  0  0  0  0  0  0  0  0  0  0  0  0
  -25.7055   -0.2172   29.4175 C   0  0  0  0  0  0  0  0  0  0  0  0
  -24.9332    0.5210   29.7511 C   0  0  0  0  0  0  0  0  0  0  0  0
  -23.6188    0.2635   30.2332 C   0  0  0  0  0  0  0  0  0  0  0  0
  -23.3302   -1.0634   30.5250 C   0  0  0  0  0  0  0  0  0  0  0  0
  -25.3024   -1.6759   29.6212 C   0  0  0  0  0  0  0  0  0  0  0  0
  -24.1476   -1.9953   30.1829 C   0  0  0  0  0  0  0  0  0  0  0  0
  -25.1466    2.0577   29.5117 C   0  0  0  0  0  0  0  0  0  0  0  0
  -25.2957    2.8939   30.4911 O   0  0  0  0  0  0  0  0  0  0  0  0
  -24.8318    2.6132   28.3711 O   0  0  0  0  0  0  0  0  0  0  0  0
  -23.7937    2.1688   27.6300 C   0  0  0  0  0  0  0  0  0  0  0  0
  -23.8956    2.4483   26.2069 C   0  0  0  0  0  0  0  0  0  0  0  0
  -24.9511    3.1074   25.8112 C   0  0  0  0  0  0  0  0  0  0  0  0
  5  7  1  0
  2  8  1  0
  9 14  1  0
 14 15  2  0
 14 16  1  0
 16 17  1  0
 17 18  2  3
 18 19  1  0
  1  2  2  0
  2  3  1  0
  3  4  2  0
  4  5  1  0
  5  6  2  0
  6  1  1  0
  8  9  2  0
  9 10  1  0
 10 11  2  0
 11 13  1  0
 13 12  2  0
 12  8  1  0
M  END

$$$$
