No_2865-gen_results/8p0m/2024-11-27-11-27-31/
     RDKit          3D

 26 29  0  0  0  0  0  0  0  0999 V2000
  -28.0162   -0.8135   28.8779 C   0  0  0  0  0  0  0  0  0  0  0  0
  -28.4690   -0.7850   29.8287 C   0  0  0  0  0  0  0  0  0  0  0  0
  -27.1356    0.2359   28.5352 C   0  0  0  0  0  0  0  0  0  0  0  0
  -26.8745    1.2825   29.3982 C   0  0  0  0  0  0  0  0  0  0  0  0
  -28.3613    0.1987   30.9244 C   0  0  0  0  0  0  0  0  0  0  0  0
  -27.5277    1.2234   30.6356 C   0  0  0  0  0  0  0  0  0  0  0  0
  -26.3987    0.2949   27.2279 C   0  0  0  0  0  0  0  0  0  0  0  0
  -26.9022    0.7280   26.2134 C   0  0  0  0  0  0  0  0  0  0  0  0
  -26.1747    0.6364   24.9259 C   0  0  0  0  0  0  0  0  0  0  0  0
  -25.0769   -0.2068   27.2393 C   0  0  0  0  0  0  0  0  0  0  0  0
  -24.4662   -0.6746   28.5690 C   0  0  0  0  0  0  0  0  0  0  0  0
  -24.8102    0.2419   24.9847 C   0  0  0  0  0  0  0  0  0  0  0  0
  -24.2910   -0.1013   26.1508 C   0  0  0  0  0  0  0  0  0  0  0  0
  -24.0778   -1.5859   29.1453 C   0  0  0  0  0  0  0  0  0  0  0  0
  -23.4398   -1.6085   30.4007 C   0  0  0  0  0  0  0  0  0  0  0  0
  -23.5240   -0.3712   31.1366 C   0  0  0  0  0  0  0  0  0  0  0  0
  -24.2698    0.6931   29.4571 C   0  0  0  0  0  0  0  0  0  0  0  0
  -23.7437    0.7128   30.6232 C   0  0  0  0  0  0  0  0  0  0  0  0
  -28.3333    1.1444   25.9786 C   0  0  0  0  0  0  0  0  0  0  0  0
  -28.5826    2.4574   26.2404 C   0  0  0  0  0  0  0  0  0  0  0  0
  -29.3406    0.2088   25.7881 C   0  0  0  0  0  0  0  0  0  0  0  0
  -30.6874    0.5098   26.1047 C   0  0  0  0  0  0  0  0  0  0  0  0
  -31.6207   -0.3663   25.8815 C   0  0  0  0  0  0  0  0  0  0  0  0
  -31.0207    1.7418   26.8159 C   0  0  0  0  0  0  0  0  0  0  0  0
  -29.9741    2.7826   26.7971 C   0  0  0  0  0  0  0  0  0  0  0  0
  -32.5062   -0.1253   25.1339 O   0  0  0  0  0  0  0  0  0  0  0  0
  3  7  1  0
 10 11  1  0
  8 19  1  0
 19 20  1  0
 19 21  1  0
 21 22  1  0
 22 23  2  0
 22 24  1  0
 20 25  1  0
 24 25  1  0
 23 26  2  0
 11 14  2  0
 14 15  1  0
 15 16  2  0
 16 18  1  0
 18 17  2  0
 17 11  1  0
  7  8  1  0
  8  9  2  0
  9 12  1  0
 12 13  2  0
 13 10  1  0
 10  7  2  0
  1  2  2  0
  2  5  1  0
  5  6  2  0
  6  4  1  0
  4  3  2  0
  3  1  1  0
M  END

$$$$
