No_2958-gen_results/8p0m/2024-11-27-11-27-31/
     RDKit          3D

 27 28  0  0  0  0  0  0  0  0999 V2000
  -28.0162   -0.8135   28.8779 C   0  0  0  0  0  0  0  0  0  0  0  0
  -27.0636   -0.1190   28.6079 C   0  0  0  0  0  0  0  0  0  0  0  0
  -26.9287    1.1713   29.0083 C   0  0  0  0  0  0  0  0  0  0  0  0
  -25.7702    2.0341   28.6884 C   0  0  0  0  0  0  0  0  0  0  0  0
  -24.7141    1.4431   27.9188 C   0  0  0  0  0  0  0  0  0  0  0  0
  -24.8590    0.0783   27.5836 C   0  0  0  0  0  0  0  0  0  0  0  0
  -25.9647   -0.6606   27.9164 C   0  0  0  0  0  0  0  0  0  0  0  0
  -29.2406   -0.2045   29.0738 C   0  0  0  0  0  0  0  0  0  0  0  0
  -29.2782    1.1474   29.4856 C   0  0  0  0  0  0  0  0  0  0  0  0
  -28.1299    1.9048   29.3190 C   0  0  0  0  0  0  0  0  0  0  0  0
  -23.4496    2.0913   27.6809 C   0  0  0  0  0  0  0  0  0  0  0  0
  -22.3663    1.6214   27.2899 N   0  0  0  0  0  0  0  0  0  0  0  0
  -23.5543    3.4182   27.7613 O   0  0  0  0  0  0  0  0  0  0  0  0
  -30.3541   -0.9731   29.4166 O   0  0  0  0  0  0  0  0  0  0  0  0
  -31.4332   -0.9521   28.5169 C   0  0  0  0  0  0  0  0  0  0  0  0
  -32.2160   -2.0856   28.6474 C   0  0  0  0  0  0  0  0  0  0  0  0
  -31.8459   -3.0565   29.1021 O   0  0  0  0  0  0  0  0  0  0  0  0
  -33.3952   -2.0997   28.0796 O   0  0  0  0  0  0  0  0  0  0  0  0
  -31.5436   -0.0474   27.7101 O   0  0  0  0  0  0  0  0  0  0  0  0
  -32.2385   -4.4609   28.8163 C   0  0  0  0  0  0  0  0  0  0  0  0
  -31.2870   -5.3832   29.1711 C   0  0  0  0  0  0  0  0  0  0  0  0
  -31.0479   -6.2969   28.3534 O   0  0  0  0  0  0  0  0  0  0  0  0
  -30.5322   -5.2565   30.2118 O   0  0  0  0  0  0  0  0  0  0  0  0
  -29.2982   -4.7031   30.2050 C   0  0  0  0  0  0  0  0  0  0  0  0
  -28.6508   -4.6859   31.5626 C   0  0  0  0  0  0  0  0  0  0  0  0
  -29.7837   -4.8179   32.4714 C   0  0  0  0  0  0  0  0  0  0  0  0
  -30.7596   -5.6961   32.2308 C   0  0  0  0  0  0  0  0  0  0  0  0
  5 11  1  0
 11 12  1  0
 11 13  2  0
  8 14  1  0
 14 15  1  0
 15 16  1  0
 16 17  1  0
 16 18  2  0
 15 19  2  0
 17 20  1  0
 20 21  1  0
 21 22  2  0
 21 23  1  0
 23 24  1  0
 24 25  2  3
 25 26  1  0
 26 27  1  0
  3  4  1  0
  4  5  2  0
  5  6  1  0
  6  7  2  0
  7  2  1  0
  1  2  2  0
  2  3  1  0
  3 10  2  0
 10  9  1  0
  9  8  2  0
  8  1  1  0
M  END

$$$$
