No_2487-gen_results/8p0m/2024-11-27-11-27-31/
     RDKit          3D

 16 17  0  0  0  0  0  0  0  0999 V2000
  -28.1229   -1.3353   28.4874 O   0  0  0  0  0  0  0  0  0  0  0  0
  -27.4806   -0.4044   28.7094 C   0  0  0  0  0  0  0  0  0  0  0  0
  -26.3804   -0.0867   27.9394 C   0  0  0  0  0  0  0  0  0  0  0  0
  -27.8993    0.6459   29.6321 N   0  0  0  0  0  0  0  0  0  0  0  0
  -25.3739    0.7467   28.5670 C   0  0  0  0  0  0  0  0  0  0  0  0
  -24.1052    0.9392   28.0279 C   0  0  0  0  0  0  0  0  0  0  0  0
  -23.8663    1.7484   27.0320 C   0  0  0  0  0  0  0  0  0  0  0  0
  -22.5070    1.9401   26.5716 C   0  0  0  0  0  0  0  0  0  0  0  0
  -22.9184    0.6142   28.8696 C   0  0  0  0  0  0  0  0  0  0  0  0
  -23.1958   -0.2453   30.0811 C   0  0  0  0  0  0  0  0  0  0  0  0
  -21.4390    1.5638   27.3755 C   0  0  0  0  0  0  0  0  0  0  0  0
  -21.6227    0.8976   28.4919 C   0  0  0  0  0  0  0  0  0  0  0  0
  -27.0563    1.5798   30.1459 C   0  0  0  0  0  0  0  0  0  0  0  0
  -25.5562    1.4276   29.8997 C   0  0  0  0  0  0  0  0  0  0  0  0
  -23.6340   -1.6601   30.1426 Cl  0  0  0  0  0  0  0  0  0  0  0  0
  -24.0001    0.5591   31.0283 F   0  0  0  0  0  0  0  0  0  0  0  0
  1  2  2  0
  2  3  1  0
  2  4  1  0
  3  5  1  0
  5  6  1  0
  9 10  1  0
  5 14  1  0
 13 14  1  0
 10 15  1  0
 10 16  1  0
 13  4  1  0
  6  7  2  0
  7  8  1  0
  8 11  2  0
 11 12  1  0
 12  9  2  0
  9  6  1  0
M  END

$$$$
