No_286-gen_results/8p0m/2024-11-27-11-27-31/
     RDKit          3D

 17 18  0  0  0  0  0  0  0  0999 V2000
  -28.0162   -0.8135   28.8779 C   0  0  0  0  0  0  0  0  0  0  0  0
  -27.0636   -0.1190   28.6079 C   0  0  0  0  0  0  0  0  0  0  0  0
  -25.8176   -0.3427   29.0488 N   0  0  0  0  0  0  0  0  0  0  0  0
  -25.6067   -1.4414   29.8929 C   0  0  0  0  0  0  0  0  0  0  0  0
  -26.6760   -2.2193   30.2363 C   0  0  0  0  0  0  0  0  0  0  0  0
  -27.8635   -1.9317   29.7671 C   0  0  0  0  0  0  0  0  0  0  0  0
  -27.1286    1.0356   27.8135 N   0  0  0  0  0  0  0  0  0  0  0  0
  -26.1342    1.9036   27.7281 C   0  0  0  0  0  0  0  0  0  0  0  0
  -25.9502    2.9937   27.8825 C   0  0  0  0  0  0  0  0  0  0  0  0
  -24.7699    3.8628   27.6310 C   0  0  0  0  0  0  0  0  0  0  0  0
  -23.6799    3.1502   27.1430 C   0  0  0  0  0  0  0  0  0  0  0  0
  -24.8141    1.3638   27.0327 C   0  0  0  0  0  0  0  0  0  0  0  0
  -23.7524    1.9521   26.7982 C   0  0  0  0  0  0  0  0  0  0  0  0
  -28.3188    1.3325   27.1010 C   0  0  0  0  0  0  0  0  0  0  0  0
  -29.2716    2.1185   27.7530 C   0  0  0  0  0  0  0  0  0  0  0  0
  -28.5095    0.9021   25.8229 C   0  0  0  0  0  0  0  0  0  0  0  0
  -27.5089    0.4641   25.1373 O   0  0  0  0  0  0  0  0  0  0  0  0
  2  7  1  0
  7  8  1  0
  7 14  1  0
 14 15  1  0
 14 16  1  0
 16 17  2  0
  1  2  2  0
  2  3  1  0
  3  4  2  0
  4  5  1  0
  5  6  2  0
  6  1  1  0
  8  9  2  0
  9 10  1  0
 10 11  2  0
 11 13  1  0
 13 12  2  0
 12  8  1  0
M  END

$$$$
