No_256-gen_results/8p0m/2024-11-27-11-27-31/
     RDKit          3D

 24 25  0  0  0  0  0  0  0  0999 V2000
  -28.0162   -0.8135   28.8779 C   0  0  0  0  0  0  0  0  0  0  0  0
  -27.0636   -0.1189   28.6079 C   0  0  0  0  0  0  0  0  0  0  0  0
  -26.9287    1.1713   29.0083 C   0  0  0  0  0  0  0  0  0  0  0  0
  -25.7702    2.0341   28.6884 C   0  0  0  0  0  0  0  0  0  0  0  0
  -24.7141    1.4431   27.9188 C   0  0  0  0  0  0  0  0  0  0  0  0
  -24.8590    0.0783   27.5836 C   0  0  0  0  0  0  0  0  0  0  0  0
  -25.9647   -0.6606   27.9164 C   0  0  0  0  0  0  0  0  0  0  0  0
  -28.0422   -1.5426   30.2417 C   0  0  0  0  0  0  0  0  0  0  0  0
  -29.0635   -2.4584   30.5917 C   0  0  0  0  0  0  0  0  0  0  0  0
  -28.7027   -3.7565   30.7123 C   0  0  0  0  0  0  0  0  0  0  0  0
  -29.7172   -4.6841   30.9826 C   0  0  0  0  0  0  0  0  0  0  0  0
  -31.0194   -4.2888   31.0302 C   0  0  0  0  0  0  0  0  0  0  0  0
  -31.3336   -2.9636   30.9347 C   0  0  0  0  0  0  0  0  0  0  0  0
  -30.3304   -2.0008   30.6879 C   0  0  0  0  0  0  0  0  0  0  0  0
  -23.5298    2.1702   27.5499 C   0  0  0  0  0  0  0  0  0  0  0  0
  -22.4093    2.1911   27.8915 N   0  0  0  0  0  0  0  0  0  0  0  0
  -23.7956    2.9201   26.4011 O   0  0  0  0  0  0  0  0  0  0  0  0
  -27.4498   -4.1921   30.5200 O   0  0  0  0  0  0  0  0  0  0  0  0
  -26.7583   -4.2427   29.2798 C   0  0  0  0  0  0  0  0  0  0  0  0
  -25.4244   -4.9252   29.6126 C   0  0  0  0  0  0  0  0  0  0  0  0
  -24.4296   -3.9022   29.2751 C   0  0  0  0  0  0  0  0  0  0  0  0
  -24.6242   -2.7172   29.5992 F   0  0  0  0  0  0  0  0  0  0  0  0
  -24.1595   -3.8589   27.8975 F   0  0  0  0  0  0  0  0  0  0  0  0
  -23.1741   -4.2588   29.6944 F   0  0  0  0  0  0  0  0  0  0  0  0
  1  2  1  0
  1  8  1  0
  8  9  1  0
  5 15  1  0
 15 16  1  0
 15 17  2  0
 10 18  1  0
 18 19  1  0
 19 20  1  0
 20 21  1  0
 21 22  1  0
 21 23  1  0
 21 24  1  0
  2  3  2  0
  3  4  1  0
  4  5  2  0
  5  6  1  0
  6  7  2  0
  7  2  1  0
  9 10  2  0
 10 11  1  0
 11 12  2  0
 12 13  1  0
 13 14  2  0
 14  9  1  0
M  END

$$$$
