No_2889-gen_results/8p0m/2024-11-27-11-27-31/
     RDKit          3D

 22 23  0  0  0  0  0  0  0  0999 V2000
  -28.0162   -0.8135   28.8779 C   0  0  0  0  0  0  0  0  0  0  0  0
  -27.0636   -0.1189   28.6079 C   0  0  0  0  0  0  0  0  0  0  0  0
  -26.8756    1.1325   28.9134 C   0  0  0  0  0  0  0  0  0  0  0  0
  -25.6883    1.9515   28.5672 C   0  0  0  0  0  0  0  0  0  0  0  0
  -24.6394    1.2834   27.8753 C   0  0  0  0  0  0  0  0  0  0  0  0
  -24.8068   -0.0513   27.6040 C   0  0  0  0  0  0  0  0  0  0  0  0
  -25.9019   -0.7670   27.9511 C   0  0  0  0  0  0  0  0  0  0  0  0
  -28.6455   -0.5282   30.2428 C   0  0  0  0  0  0  0  0  0  0  0  0
  -29.5544   -1.0303   30.6491 C   0  0  0  0  0  0  0  0  0  0  0  0
  -30.1656   -0.8377   31.9377 C   0  0  0  0  0  0  0  0  0  0  0  0
  -23.4526    1.9904   27.4567 C   0  0  0  0  0  0  0  0  0  0  0  0
  -29.6412    0.1649   32.7471 C   0  0  0  0  0  0  0  0  0  0  0  0
  -28.5026    0.8124   32.2845 C   0  0  0  0  0  0  0  0  0  0  0  0
  -27.9863    0.4931   31.0987 C   0  0  0  0  0  0  0  0  0  0  0  0
  -27.9421    1.9820   29.4490 C   0  0  0  0  0  0  0  0  0  0  0  0
  -26.7189    0.6280   31.0708 N   0  0  0  0  0  0  0  0  0  0  0  0
  -26.0937    0.4075   32.4309 C   0  0  0  0  0  0  0  0  0  0  0  0
  -28.0597    3.1119   28.4193 C   0  0  0  0  0  0  0  0  0  0  0  0
  -24.5792    0.6230   32.3411 C   0  0  0  0  0  0  0  0  0  0  0  0
  -26.5515    0.3375   33.4812 O   0  0  0  0  0  0  0  0  0  0  0  0
  -29.1918    4.0575   28.7438 C   0  0  0  0  0  0  0  0  0  0  0  0
  -22.3310    2.4347   27.8340 N   0  0  0  0  0  0  0  0  0  0  0  0
  1  2  2  3
  2  3  1  0
  3  4  1  0
  4  5  1  0
  5  6  1  0
  2  7  1  0
  6  7  1  0
  1  8  1  0
  5 11  1  0
  3 15  1  0
 14 16  1  0
 16 17  1  0
 15 18  2  3
 17 19  1  0
 17 20  2  0
 18 21  1  0
 11 22  3  0
  8  9  2  0
  9 10  1  0
 10 12  2  0
 12 13  1  0
 13 14  2  0
 14  8  1  0
M  END

$$$$
