No_2295-gen_results/8p0m/2024-11-27-11-27-31/
     RDKit          3D

 26 28  0  0  0  0  0  0  0  0999 V2000
  -28.0162   -0.8135   28.8779 C   0  0  0  0  0  0  0  0  0  0  0  0
  -27.0636   -0.1189   28.6079 C   0  0  0  0  0  0  0  0  0  0  0  0
  -25.7923   -0.4302   29.0761 C   0  0  0  0  0  0  0  0  0  0  0  0
  -24.5456    0.3494   28.8225 C   0  0  0  0  0  0  0  0  0  0  0  0
  -23.2409    0.0217   29.3323 C   0  0  0  0  0  0  0  0  0  0  0  0
  -27.8820   -1.8995   29.8633 C   0  0  0  0  0  0  0  0  0  0  0  0
  -26.6526   -2.3142   30.3138 C   0  0  0  0  0  0  0  0  0  0  0  0
  -25.5153   -1.5607   29.9787 C   0  0  0  0  0  0  0  0  0  0  0  0
  -23.2072   -1.2289   30.0311 C   0  0  0  0  0  0  0  0  0  0  0  0
  -24.2434   -1.9361   30.3879 C   0  0  0  0  0  0  0  0  0  0  0  0
  -24.5886    1.5614   27.9544 C   0  0  0  0  0  0  0  0  0  0  0  0
  -24.8108    2.6834   28.5551 C   0  0  0  0  0  0  0  0  0  0  0  0
  -24.4292    2.8674   29.7264 F   0  0  0  0  0  0  0  0  0  0  0  0
  -25.9494    3.3333   28.3286 F   0  0  0  0  0  0  0  0  0  0  0  0
  -24.5177    1.2818   26.5724 C   0  0  0  0  0  0  0  0  0  0  0  0
  -29.3026   -2.8140   30.2304 Cl  0  0  0  0  0  0  0  0  0  0  0  0
  -23.8416    3.4989   27.8030 F   0  0  0  0  0  0  0  0  0  0  0  0
  -25.0010    0.1682   25.9378 C   0  0  0  0  0  0  0  0  0  0  0  0
  -25.9526    0.4429   24.9181 C   0  0  0  0  0  0  0  0  0  0  0  0
  -27.0135   -0.4492   24.7593 C   0  0  0  0  0  0  0  0  0  0  0  0
  -28.1463   -0.1135   23.9849 C   0  0  0  0  0  0  0  0  0  0  0  0
  -29.2728   -0.9823   24.0402 C   0  0  0  0  0  0  0  0  0  0  0  0
  -30.5281   -0.6606   24.3400 C   0  0  0  0  0  0  0  0  0  0  0  0
  -31.0258    0.5747   23.9582 C   0  0  0  0  0  0  0  0  0  0  0  0
  -29.9448    1.5986   23.8298 C   0  0  0  0  0  0  0  0  0  0  0  0
  -28.6646    1.3003   24.0673 C   0  0  0  0  0  0  0  0  0  0  0  0
  4 11  1  0
 11 12  1  0
 12 13  1  0
 12 14  1  0
 11 15  1  0
  6 16  1  0
 12 17  1  0
 15 18  1  0
 18 19  2  3
 19 20  1  0
 20 21  1  0
  1  2  2  0
  2  3  1  0
  8  7  1  0
  7  6  2  0
  6  1  1  0
  3  4  2  0
  4  5  1  0
  5  9  2  0
  9 10  1  0
 10  8  2  0
  8  3  1  0
 21 22  2  0
 22 23  1  0
 23 24  2  0
 24 25  1  0
 25 26  2  0
 26 21  1  0
M  END

$$$$
