No_280-gen_results/8p0m/2024-11-27-11-27-31/
     RDKit          3D

 15 16  0  0  0  0  0  0  0  0999 V2000
  -28.0162   -0.8135   28.8779 C   0  0  0  0  0  0  0  0  0  0  0  0
  -28.4690   -0.7850   29.8287 C   0  0  0  0  0  0  0  0  0  0  0  0
  -26.5455   -0.8762   28.8500 C   0  0  0  0  0  0  0  0  0  0  0  0
  -25.8041   -1.0324   30.0571 C   0  0  0  0  0  0  0  0  0  0  0  0
  -27.9437   -0.9869   31.2075 C   0  0  0  0  0  0  0  0  0  0  0  0
  -26.5825   -1.0386   31.2231 C   0  0  0  0  0  0  0  0  0  0  0  0
  -30.2809   -0.7232   29.8834 Cl  0  0  0  0  0  0  0  0  0  0  0  0
  -24.3690   -1.1185   30.0640 C   0  0  0  0  0  0  0  0  0  0  0  0
  -23.5954   -0.5553   29.0940 C   0  0  0  0  0  0  0  0  0  0  0  0
  -22.9478    0.6664   29.2869 C   0  0  0  0  0  0  0  0  0  0  0  0
  -22.1637    1.2293   28.2251 C   0  0  0  0  0  0  0  0  0  0  0  0
  -22.5147    2.1891   27.4672 C   0  0  0  0  0  0  0  0  0  0  0  0
  -23.8508    2.7691   27.6482 C   0  0  0  0  0  0  0  0  0  0  0  0
  -24.6335    2.5130   28.7471 C   0  0  0  0  0  0  0  0  0  0  0  0
  -23.8403    1.5780   30.0570 C   0  0  0  0  0  0  0  0  0  0  0  0
  2  7  1  0
  4  8  1  0
  8  9  1  0
  9 10  1  0
  1  2  2  0
  2  5  1  0
  5  6  2  0
  6  4  1  0
  4  3  2  0
  3  1  1  0
 10 11  2  0
 11 12  1  0
 12 13  2  0
 13 14  1  0
 14 15  2  0
 15 10  1  0
M  END

$$$$
