No_2905-gen_results/8p0m/2024-11-27-11-27-31/
     RDKit          3D

 12 13  0  0  0  0  0  0  0  0999 V2000
  -28.0162   -0.8135   28.8779 C   0  0  0  0  0  0  0  0  0  0  0  0
  -27.0636   -0.1190   28.6079 C   0  0  0  0  0  0  0  0  0  0  0  0
  -25.7923   -0.4302   29.0761 C   0  0  0  0  0  0  0  0  0  0  0  0
  -25.5756   -1.5654   29.9363 C   0  0  0  0  0  0  0  0  0  0  0  0
  -26.7354   -2.3004   30.2173 C   0  0  0  0  0  0  0  0  0  0  0  0
  -27.9184   -1.9537   29.7629 C   0  0  0  0  0  0  0  0  0  0  0  0
  -27.1057    1.1023   27.7593 C   0  0  0  0  0  0  0  0  0  0  0  0
  -27.8576    1.5309   27.2156 C   0  0  0  0  0  0  0  0  0  0  0  0
  -27.8433    2.7213   26.2861 C   0  0  0  0  0  0  0  0  0  0  0  0
  -26.6217    3.3253   26.0566 C   0  0  0  0  0  0  0  0  0  0  0  0
  -25.4854    2.7960   26.6725 C   0  0  0  0  0  0  0  0  0  0  0  0
  -25.6222    1.7365   27.5193 C   0  0  0  0  0  0  0  0  0  0  0  0
  2  7  1  0
  1  2  2  0
  2  3  1  0
  3  4  2  0
  4  5  1  0
  5  6  2  0
  6  1  1  0
  7  8  2  0
  8  9  1  0
  9 10  2  0
 10 11  1  0
 11 12  2  0
 12  7  1  0
M  END

$$$$
