No_2482-gen_results/8p0m/2024-11-27-11-27-31/
     RDKit          3D

 25 27  0  0  0  0  0  0  0  0999 V2000
  -28.1146   -0.6256   29.0813 Br  0  0  0  0  0  0  0  0  0  0  0  0
  -26.9268    0.4545   28.6846 C   0  0  0  0  0  0  0  0  0  0  0  0
  -25.8457    0.7043   29.3312 C   0  0  0  0  0  0  0  0  0  0  0  0
  -24.8514    1.6413   28.9474 C   0  0  0  0  0  0  0  0  0  0  0  0
  -23.5859    1.9127   29.5890 C   0  0  0  0  0  0  0  0  0  0  0  0
  -23.3126    1.0327   30.6490 C   0  0  0  0  0  0  0  0  0  0  0  0
  -24.1810    0.0831   31.1324 C   0  0  0  0  0  0  0  0  0  0  0  0
  -25.3703   -0.0687   30.4179 C   0  0  0  0  0  0  0  0  0  0  0  0
  -27.0997    1.1406   27.3527 C   0  0  0  0  0  0  0  0  0  0  0  0
  -28.0848    1.6974   27.0760 C   0  0  0  0  0  0  0  0  0  0  0  0
  -28.2542    2.2555   25.6931 C   0  0  0  0  0  0  0  0  0  0  0  0
  -27.1994    2.1167   24.8001 C   0  0  0  0  0  0  0  0  0  0  0  0
  -26.0677    1.4613   25.1930 C   0  0  0  0  0  0  0  0  0  0  0  0
  -25.9575    0.8919   26.4692 C   0  0  0  0  0  0  0  0  0  0  0  0
  -29.3322    2.8976   25.2781 F   0  0  0  0  0  0  0  0  0  0  0  0
  -23.7538   -0.9013   32.4436 Cl  0  0  0  0  0  0  0  0  0  0  0  0
  -29.2711    2.0607   27.7176 O   0  0  0  0  0  0  0  0  0  0  0  0
  -30.4703    1.4543   27.5460 C   0  0  0  0  0  0  0  0  0  0  0  0
  -31.1753    1.4506   28.8323 C   0  0  0  0  0  0  0  0  0  0  0  0
  -30.7774    2.0673   29.8481 C   0  0  0  0  0  0  0  0  0  0  0  0
  -31.2188    2.4193   30.7307 C   0  0  0  0  0  0  0  0  0  0  0  0
  -30.6336    3.2699   31.7799 C   0  0  0  0  0  0  0  0  0  0  0  0
  -29.2838    3.5750   31.6975 C   0  0  0  0  0  0  0  0  0  0  0  0
  -28.6020    3.1310   30.5773 C   0  0  0  0  0  0  0  0  0  0  0  0
  -29.3011    2.4338   29.6970 C   0  0  0  0  0  0  0  0  0  0  0  0
  1  2  1  0
  2  9  1  0
 11 15  1  0
  7 16  1  0
 10 17  1  0
 17 18  1  0
 18 19  1  0
 19 20  1  0
  2  3  1  0
  3  4  2  0
  4  5  1  0
  5  6  2  0
  6  7  1  0
  7  8  2  0
  8  3  1  0
  9 10  1  0
 10 11  2  0
 11 12  1  0
 12 13  2  0
 13 14  1  0
 14  9  2  0
 20 21  2  0
 21 22  1  0
 22 23  2  0
 23 24  1  0
 24 25  2  0
 25 20  1  0
M  END

$$$$
