No_2403-gen_results/8p0m/2024-11-27-11-27-31/
     RDKit          3D

 17 17  0  0  0  0  0  0  0  0999 V2000
  -28.0162   -0.8135   28.8779 C   0  0  0  0  0  0  0  0  0  0  0  0
  -28.4690   -0.7850   29.8287 C   0  0  0  0  0  0  0  0  0  0  0  0
  -26.5042   -0.7777   28.8766 C   0  0  0  0  0  0  0  0  0  0  0  0
  -25.8103   -0.8531   30.1028 C   0  0  0  0  0  0  0  0  0  0  0  0
  -27.9906   -0.8916   31.2257 C   0  0  0  0  0  0  0  0  0  0  0  0
  -26.6042   -0.8676   31.2652 C   0  0  0  0  0  0  0  0  0  0  0  0
  -24.3894   -0.8049   30.1638 C   0  0  0  0  0  0  0  0  0  0  0  0
  -23.6350   -0.8621   29.1472 C   0  0  0  0  0  0  0  0  0  0  0  0
  -22.1747   -0.6734   29.2132 C   0  0  0  0  0  0  0  0  0  0  0  0
  -23.6708    0.1976   30.9737 C   0  0  0  0  0  0  0  0  0  0  0  0
  -21.5452    0.1951   28.5018 C   0  0  0  0  0  0  0  0  0  0  0  0
  -22.1203    1.2261   27.7166 C   0  0  0  0  0  0  0  0  0  0  0  0
  -21.8655    1.6268   26.5836 N   0  0  0  0  0  0  0  0  0  0  0  0
  -23.1478    1.8789   28.3823 O   0  0  0  0  0  0  0  0  0  0  0  0
  -30.0617   -0.7318   29.6336 C   0  0  0  0  0  0  0  0  0  0  0  0
  -30.7012    0.1970   30.2500 O   0  0  0  0  0  0  0  0  0  0  0  0
  -30.6233   -1.6080   29.0243 O   0  0  0  0  0  0  0  0  0  0  0  0
  4  7  1  0
  7  8  2  3
  8  9  1  0
  7 10  1  0
  9 11  1  0
 11 12  1  0
 12 13  1  0
 12 14  2  0
  2 15  1  0
 15 16  2  0
 15 17  1  0
  1  2  2  0
  2  5  1  0
  5  6  2  0
  6  4  1  0
  4  3  2  0
  3  1  1  0
M  END

$$$$
