No_2648-gen_results/8p0m/2024-11-27-11-27-31/
     RDKit          3D

 17 19  0  0  0  0  0  0  0  0999 V2000
  -28.0162   -0.8135   28.8779 C   0  0  0  0  0  0  0  0  0  0  0  0
  -28.4690   -0.7850   29.8287 C   0  0  0  0  0  0  0  0  0  0  0  0
  -27.1356    0.2359   28.5352 C   0  0  0  0  0  0  0  0  0  0  0  0
  -26.8745    1.2825   29.3982 C   0  0  0  0  0  0  0  0  0  0  0  0
  -27.5070    1.2380   30.6295 C   0  0  0  0  0  0  0  0  0  0  0  0
  -28.3293    0.1745   30.9350 C   0  0  0  0  0  0  0  0  0  0  0  0
  -26.4077    0.3070   27.2259 C   0  0  0  0  0  0  0  0  0  0  0  0
  -25.1258    0.2690   27.2739 N   0  0  0  0  0  0  0  0  0  0  0  0
  -24.3923   -0.4758   28.1001 C   0  0  0  0  0  0  0  0  0  0  0  0
  -23.3758    0.0299   28.9977 C   0  0  0  0  0  0  0  0  0  0  0  0
  -22.9680    1.3597   28.8498 C   0  0  0  0  0  0  0  0  0  0  0  0
  -23.4570    2.0763   27.6673 C   0  0  0  0  0  0  0  0  0  0  0  0
  -24.8045    1.8210   27.5853 C   0  0  0  0  0  0  0  0  0  0  0  0
  -25.7922    2.7392   27.6700 C   0  0  0  0  0  0  0  0  0  0  0  0
  -26.2783    2.5220   28.9716 C   0  0  0  0  0  0  0  0  0  0  0  0
  -26.2514    3.6723   29.9632 C   0  0  0  0  0  0  0  0  0  0  0  0
  -25.8303    3.5587   31.1542 N   0  0  0  0  0  0  0  0  0  0  0  0
  3  7  1  0
  7  8  1  0
  8  9  1  0
 10 11  1  0
  8 13  1  0
 12 13  1  0
 13 14  1  0
  4 15  1  0
 14 15  1  0
 15 16  1  0
 16 17  1  0
  9 10  1  0
 11 12  1  0
  1  2  2  0
  2  6  1  0
  6  5  2  0
  5  4  1  0
  4  3  2  0
  3  1  1  0
M  END

$$$$
