No_2490-gen_results/8p0m/2024-11-27-11-27-31/
     RDKit          3D

 26 27  0  0  0  0  0  0  0  0999 V2000
  -28.0162   -0.8135   28.8779 C   0  0  0  0  0  0  0  0  0  0  0  0
  -27.0636   -0.1189   28.6079 C   0  0  0  0  0  0  0  0  0  0  0  0
  -26.9287    1.1713   29.0083 C   0  0  0  0  0  0  0  0  0  0  0  0
  -25.7702    2.0341   28.6884 C   0  0  0  0  0  0  0  0  0  0  0  0
  -24.7141    1.4431   27.9188 C   0  0  0  0  0  0  0  0  0  0  0  0
  -24.8590    0.0783   27.5836 C   0  0  0  0  0  0  0  0  0  0  0  0
  -25.9647   -0.6606   27.9164 C   0  0  0  0  0  0  0  0  0  0  0  0
  -27.9820   -1.6112   30.1028 N   0  0  0  0  0  0  0  0  0  0  0  0
  -23.5351    2.1704   27.5550 C   0  0  0  0  0  0  0  0  0  0  0  0
  -22.3779    2.1928   27.8323 N   0  0  0  0  0  0  0  0  0  0  0  0
  -23.8225    2.9736   26.4404 O   0  0  0  0  0  0  0  0  0  0  0  0
  -29.2085   -0.6065   28.4878 O   0  0  0  0  0  0  0  0  0  0  0  0
  -26.7432   -1.9385   30.8101 C   0  0  0  0  0  0  0  0  0  0  0  0
  -29.1062   -2.4231   30.5341 C   0  0  0  0  0  0  0  0  0  0  0  0
  -28.9187   -3.7775   30.4798 C   0  0  0  0  0  0  0  0  0  0  0  0
  -29.7730   -4.4874   30.9546 O   0  0  0  0  0  0  0  0  0  0  0  0
  -27.7213   -4.3261   30.3468 O   0  0  0  0  0  0  0  0  0  0  0  0
  -21.8759    1.2231   28.8097 C   0  0  0  0  0  0  0  0  0  0  0  0
  -20.7734    0.3729   28.3216 C   0  0  0  0  0  0  0  0  0  0  0  0
  -22.5247    1.0029   29.8132 O   0  0  0  0  0  0  0  0  0  0  0  0
  -30.2860   -5.5047   30.1965 C   0  0  0  0  0  0  0  0  0  0  0  0
  -31.2471   -6.3458   30.8904 C   0  0  0  0  0  0  0  0  0  0  0  0
  -31.6244   -7.4721   30.1645 C   0  0  0  0  0  0  0  0  0  0  0  0
  -31.6858   -7.3167   28.7183 C   0  0  0  0  0  0  0  0  0  0  0  0
  -30.9031   -6.3255   28.0831 C   0  0  0  0  0  0  0  0  0  0  0  0
  -30.2668   -5.3726   28.8470 C   0  0  0  0  0  0  0  0  0  0  0  0
  1  2  1  0
  1  8  1  0
  5  9  1  0
  9 10  1  0
  9 11  2  0
  1 12  2  0
  8 13  1  0
  8 14  1  0
 14 15  1  0
 15 16  1  0
 15 17  2  0
 10 18  1  0
 18 19  1  0
 18 20  2  0
 16 21  1  0
  2  3  2  0
  3  4  1  0
  4  5  2  0
  5  6  1  0
  6  7  2  0
  7  2  1  0
 21 22  2  0
 22 23  1  0
 23 24  2  0
 24 25  1  0
 25 26  2  0
 26 21  1  0
M  END

$$$$
