No_2412-gen_results/8p0m/2024-11-27-11-27-31/
     RDKit          3D

 15 16  0  0  0  0  0  0  0  0999 V2000
  -28.0162   -0.8135   28.8779 C   0  0  0  0  0  0  0  0  0  0  0  0
  -28.4690   -0.7850   29.8287 C   0  0  0  0  0  0  0  0  0  0  0  0
  -27.1356    0.2359   28.5352 C   0  0  0  0  0  0  0  0  0  0  0  0
  -26.8745    1.2825   29.3982 C   0  0  0  0  0  0  0  0  0  0  0  0
  -28.3613    0.1987   30.9244 C   0  0  0  0  0  0  0  0  0  0  0  0
  -27.5277    1.2234   30.6356 C   0  0  0  0  0  0  0  0  0  0  0  0
  -26.3879    0.2914   27.2334 C   0  0  0  0  0  0  0  0  0  0  0  0
  -25.3397    0.0456   27.1370 N   0  0  0  0  0  0  0  0  0  0  0  0
  -26.9920    0.9209   26.2539 O   0  0  0  0  0  0  0  0  0  0  0  0
  -24.4094   -0.3337   28.2237 C   0  0  0  0  0  0  0  0  0  0  0  0
  -23.2423    0.4333   28.5257 C   0  0  0  0  0  0  0  0  0  0  0  0
  -22.3549    0.1649   28.9997 C   0  0  0  0  0  0  0  0  0  0  0  0
  -22.1976   -1.1714   29.5853 C   0  0  0  0  0  0  0  0  0  0  0  0
  -24.3590   -1.6688   28.5527 C   0  0  0  0  0  0  0  0  0  0  0  0
  -23.2088   -2.0534   29.3420 C   0  0  0  0  0  0  0  0  0  0  0  0
  3  7  1  0
  7  8  1  0
  7  9  2  0
  8 10  1  0
 10 11  2  0
 11 12  1  0
 12 13  2  0
 13 15  1  0
 15 14  2  0
 14 10  1  0
  1  2  2  0
  2  5  1  0
  5  6  2  0
  6  4  1  0
  4  3  2  0
  3  1  1  0
M  END

$$$$
