No_2515-gen_results/8p0m/2024-11-27-11-27-31/
     RDKit          3D

 32 34  0  0  0  0  0  0  0  0999 V2000
  -28.0162   -0.8135   28.8779 C   0  0  0  0  0  0  0  0  0  0  0  0
  -28.4690   -0.7850   29.8287 C   0  0  0  0  0  0  0  0  0  0  0  0
  -28.1816    0.4277   28.1134 C   0  0  0  0  0  0  0  0  0  0  0  0
  -28.9841    1.4155   28.5154 C   0  0  0  0  0  0  0  0  0  0  0  0
  -28.3375   -2.0481   30.7873 C   0  0  0  0  0  0  0  0  0  0  0  0
  -29.5615    1.2930   29.7416 C   0  0  0  0  0  0  0  0  0  0  0  0
  -29.3196    0.1647   30.4451 C   0  0  0  0  0  0  0  0  0  0  0  0
  -29.1343   -2.8863   30.7724 F   0  0  0  0  0  0  0  0  0  0  0  0
  -27.1727   -2.7530   30.3174 F   0  0  0  0  0  0  0  0  0  0  0  0
  -27.9370   -1.7417   32.0263 F   0  0  0  0  0  0  0  0  0  0  0  0
  -27.4505    0.4980   26.7280 C   0  0  0  0  0  0  0  0  0  0  0  0
  -26.1338    0.4530   26.7020 N   0  0  0  0  0  0  0  0  0  0  0  0
  -25.3330    1.0484   25.8107 C   0  0  0  0  0  0  0  0  0  0  0  0
  -23.8937    1.1886   26.0713 C   0  0  0  0  0  0  0  0  0  0  0  0
  -23.4524    0.7272   27.3256 C   0  0  0  0  0  0  0  0  0  0  0  0
  -24.0488    0.5749   28.1739 C   0  0  0  0  0  0  0  0  0  0  0  0
  -25.4571    0.2619   28.0381 C   0  0  0  0  0  0  0  0  0  0  0  0
  -28.0774    0.5042   25.7377 O   0  0  0  0  0  0  0  0  0  0  0  0
  -21.6285    1.4225   27.4817 Br  0  0  0  0  0  0  0  0  0  0  0  0
  -30.4381    2.3546   30.2879 C   0  0  0  0  0  0  0  0  0  0  0  0
  -30.1622    3.4532   30.4221 O   0  0  0  0  0  0  0  0  0  0  0  0
  -31.6285    1.8837   30.6245 O   0  0  0  0  0  0  0  0  0  0  0  0
  -23.3578    0.1478   29.4501 N   0  0  0  0  0  0  0  0  0  0  0  0
  -24.0796   -0.1543   30.6115 C   0  0  0  0  0  0  0  0  0  0  0  0
  -24.3953   -1.3202   30.9649 C   0  0  0  0  0  0  0  0  0  0  0  0
  -24.5454    1.0137   31.3648 C   0  0  0  0  0  0  0  0  0  0  0  0
  -25.3775    0.8022   32.5140 C   0  0  0  0  0  0  0  0  0  0  0  0
  -25.1824   -1.5549   32.1424 N   0  0  0  0  0  0  0  0  0  0  0  0
  -25.6011   -0.4895   32.8494 C   0  0  0  0  0  0  0  0  0  0  0  0
  -25.8987    1.9168   33.2845 C   0  0  0  0  0  0  0  0  0  0  0  0
  -25.6357    3.0964   33.0533 O   0  0  0  0  0  0  0  0  0  0  0  0
  -26.6632    1.6344   34.3122 O   0  0  0  0  0  0  0  0  0  0  0  0
  2  5  1  0
  5  8  1  0
  5  9  1  0
  5 10  1  0
  3 11  1  0
 11 12  1  0
 12 13  1  0
 14 15  1  0
 12 17  1  0
 16 17  1  0
 11 18  2  0
 15 19  1  0
  6 20  1  0
 20 21  2  0
 20 22  1  0
 16 23  1  0
 23 24  1  0
 27 30  1  0
 30 31  2  0
 30 32  1  0
 13 14  1  0
 15 16  1  0
 24 25  2  0
 25 28  1  0
 28 29  2  0
 29 27  1  0
 27 26  2  0
 26 24  1  0
  1  2  2  0
  2  7  1  0
  7  6  2  0
  6  4  1  0
  4  3  2  0
  3  1  1  0
M  END

$$$$
