No_2369-gen_results/8p0m/2024-11-27-11-27-31/
     RDKit          3D

 33 36  0  0  0  0  0  0  0  0999 V2000
  -28.0162   -0.8135   28.8779 C   0  0  0  0  0  0  0  0  0  0  0  0
  -27.0636   -0.1189   28.6079 C   0  0  0  0  0  0  0  0  0  0  0  0
  -25.7647   -0.3897   29.0360 C   0  0  0  0  0  0  0  0  0  0  0  0
  -25.5296   -1.5302   29.9014 C   0  0  0  0  0  0  0  0  0  0  0  0
  -26.6577   -2.2915   30.2035 C   0  0  0  0  0  0  0  0  0  0  0  0
  -27.8548   -1.9555   29.7630 C   0  0  0  0  0  0  0  0  0  0  0  0
  -24.5349    0.4128   28.7431 C   0  0  0  0  0  0  0  0  0  0  0  0
  -24.4835    1.2431   27.7398 C   0  0  0  0  0  0  0  0  0  0  0  0
  -23.2788    1.9376   27.4159 C   0  0  0  0  0  0  0  0  0  0  0  0
  -22.0791    1.6509   28.0212 C   0  0  0  0  0  0  0  0  0  0  0  0
  -23.2748    0.1108   29.4386 C   0  0  0  0  0  0  0  0  0  0  0  0
  -22.0811    0.7712   29.0650 C   0  0  0  0  0  0  0  0  0  0  0  0
  -29.0091   -2.7990   30.1893 C   0  0  0  0  0  0  0  0  0  0  0  0
  -30.0506   -2.5266   30.0207 O   0  0  0  0  0  0  0  0  0  0  0  0
  -28.6297   -4.0588   30.5565 O   0  0  0  0  0  0  0  0  0  0  0  0
  -23.3262    2.8184   26.3891 F   0  0  0  0  0  0  0  0  0  0  0  0
  -27.1981    0.9409   27.7401 O   0  0  0  0  0  0  0  0  0  0  0  0
  -27.9119    0.8210   26.6720 C   0  0  0  0  0  0  0  0  0  0  0  0
  -28.3497    2.0987   26.1723 C   0  0  0  0  0  0  0  0  0  0  0  0
  -27.7819    3.1191   26.5661 C   0  0  0  0  0  0  0  0  0  0  0  0
  -29.3269    2.0483   25.1060 C   0  0  0  0  0  0  0  0  0  0  0  0
  -28.3050    4.4892   26.2089 C   0  0  0  0  0  0  0  0  0  0  0  0
  -29.9318    0.8624   24.6861 C   0  0  0  0  0  0  0  0  0  0  0  0
  -29.3636    4.4852   25.2633 C   0  0  0  0  0  0  0  0  0  0  0  0
  -29.8306    3.3030   24.6901 C   0  0  0  0  0  0  0  0  0  0  0  0
  -30.7239    0.1694   25.4885 C   0  0  0  0  0  0  0  0  0  0  0  0
  -31.3120   -1.0404   25.1589 C   0  0  0  0  0  0  0  0  0  0  0  0
  -32.0949   -1.8309   26.0306 C   0  0  0  0  0  0  0  0  0  0  0  0
  -32.2727   -1.3951   27.3495 C   0  0  0  0  0  0  0  0  0  0  0  0
  -31.7412   -0.1562   27.7289 C   0  0  0  0  0  0  0  0  0  0  0  0
  -30.9704    0.5702   26.9152 C   0  0  0  0  0  0  0  0  0  0  0  0
  -29.5703    0.4225   23.4030 C   0  0  0  0  0  0  0  0  0  0  0  0
  -31.0838    3.4111   23.6136 Cl  0  0  0  0  0  0  0  0  0  0  0  0
  3  7  1  0
  6 13  1  0
 13 14  1  0
 13 15  2  0
  9 16  1  0
  2 17  1  0
 17 18  1  0
 18 19  1  0
 21 23  1  0
 23 26  1  0
 23 32  1  0
 25 33  1  0
  7  8  2  0
  8  9  1  0
  9 10  2  0
 10 12  1  0
 12 11  2  0
 11  7  1  0
  1  2  2  0
  2  3  1  0
  3  4  2  0
  4  5  1  0
  5  6  2  0
  6  1  1  0
 19 20  2  0
 20 22  1  0
 22 24  2  0
 24 25  1  0
 25 21  2  0
 21 19  1  0
 26 27  2  0
 27 28  1  0
 28 29  2  0
 29 30  1  0
 30 31  2  0
 31 26  1  0
M  END

$$$$
