No_2743-gen_results/8p0m/2024-11-27-11-27-31/
     RDKit          3D

 16 16  0  0  0  0  0  0  0  0999 V2000
  -28.1229   -1.3353   28.4874 O   0  0  0  0  0  0  0  0  0  0  0  0
  -27.4806   -0.4044   28.7094 C   0  0  0  0  0  0  0  0  0  0  0  0
  -26.3804   -0.0867   27.9394 C   0  0  0  0  0  0  0  0  0  0  0  0
  -27.6665    0.4468   29.8988 N   0  0  0  0  0  0  0  0  0  0  0  0
  -25.1773   -0.4388   28.3946 C   0  0  0  0  0  0  0  0  0  0  0  0
  -26.5259    0.6036   26.6867 C   0  0  0  0  0  0  0  0  0  0  0  0
  -23.9372    0.0372   27.6524 C   0  0  0  0  0  0  0  0  0  0  0  0
  -25.3817    0.9698   25.9434 C   0  0  0  0  0  0  0  0  0  0  0  0
  -24.1031    0.7250   26.4412 C   0  0  0  0  0  0  0  0  0  0  0  0
  -28.7588    0.1102   30.7851 C   0  0  0  0  0  0  0  0  0  0  0  0
  -26.8485    1.5208   30.1933 C   0  0  0  0  0  0  0  0  0  0  0  0
  -26.2991    1.6305   31.0738 C   0  0  0  0  0  0  0  0  0  0  0  0
  -25.3458    2.7817   31.2419 C   0  0  0  0  0  0  0  0  0  0  0  0
  -24.5929    3.0390   32.4686 C   0  0  0  0  0  0  0  0  0  0  0  0
  -25.1311    2.3581   33.5463 C   0  0  0  0  0  0  0  0  0  0  0  0
  -26.0789    1.3665   33.4402 C   0  0  0  0  0  0  0  0  0  0  0  0
  1  2  2  0
  2  3  1  0
  2  4  1  0
  4 10  1  0
  4 11  1  0
 11 12  2  3
 12 13  1  0
 13 14  2  3
 14 15  1  0
 15 16  2  0
  3  5  2  0
  5  7  1  0
  7  9  2  0
  9  8  1  0
  8  6  2  0
  6  3  1  0
M  END

$$$$
