No_2869-gen_results/8p0m/2024-11-27-11-27-31/
     RDKit          3D

 25 26  0  0  0  0  0  0  0  0999 V2000
  -28.0162   -0.8135   28.8779 C   0  0  0  0  0  0  0  0  0  0  0  0
  -27.0636   -0.1190   28.6079 C   0  0  0  0  0  0  0  0  0  0  0  0
  -26.9716    0.7139   27.5060 C   0  0  0  0  0  0  0  0  0  0  0  0
  -28.1053    0.7744   26.6421 C   0  0  0  0  0  0  0  0  0  0  0  0
  -29.2008    0.1044   27.0527 C   0  0  0  0  0  0  0  0  0  0  0  0
  -29.2096   -0.6029   28.1853 C   0  0  0  0  0  0  0  0  0  0  0  0
  -30.3044    0.2267   26.2604 O   0  0  0  0  0  0  0  0  0  0  0  0
  -25.8731   -0.1883   29.3485 F   0  0  0  0  0  0  0  0  0  0  0  0
  -28.0603   -1.6004   30.0367 O   0  0  0  0  0  0  0  0  0  0  0  0
  -27.9815    1.6519   25.4483 C   0  0  0  0  0  0  0  0  0  0  0  0
  -31.4421    0.0135   26.5023 C   0  0  0  0  0  0  0  0  0  0  0  0
  -25.4478    1.4931   27.0579 Cl  0  0  0  0  0  0  0  0  0  0  0  0
  -32.3262    0.3798   25.6862 C   0  0  0  0  0  0  0  0  0  0  0  0
  -31.9825    1.2670   24.7378 C   0  0  0  0  0  0  0  0  0  0  0  0
  -31.7786   -0.7241   27.5651 O   0  0  0  0  0  0  0  0  0  0  0  0
  -31.0992    2.0689   24.9362 C   0  0  0  0  0  0  0  0  0  0  0  0
  -30.7603    3.1756   23.8416 C   0  0  0  0  0  0  0  0  0  0  0  0
  -28.7794   -1.5097   31.0471 C   0  0  0  0  0  0  0  0  0  0  0  0
  -28.4145   -0.7485   32.0612 C   0  0  0  0  0  0  0  0  0  0  0  0
  -28.8829    0.4454   32.2458 C   0  0  0  0  0  0  0  0  0  0  0  0
  -28.4475    1.3742   33.2566 C   0  0  0  0  0  0  0  0  0  0  0  0
  -28.7424    2.7611   33.3032 C   0  0  0  0  0  0  0  0  0  0  0  0
  -29.6508    3.2249   32.3139 C   0  0  0  0  0  0  0  0  0  0  0  0
  -30.1091    2.3534   31.3027 C   0  0  0  0  0  0  0  0  0  0  0  0
  -29.6771    1.0584   31.2533 C   0  0  0  0  0  0  0  0  0  0  0  0
  5  7  1  0
  2  8  1  0
  1  9  1  0
  4 10  1  0
  7 11  1  0
  3 12  1  0
 11 13  1  0
 13 14  1  0
 11 15  2  0
 14 16  2  3
 16 17  1  0
  9 18  1  0
 18 19  1  0
 19 20  1  0
  1  2  2  0
  2  3  1  0
  3  4  2  0
  4  5  1  0
  5  6  2  0
  6  1  1  0
 20 21  2  0
 21 22  1  0
 22 23  2  0
 23 24  1  0
 24 25  2  0
 25 20  1  0
M  END

$$$$
