No_2603-gen_results/8p0m/2024-11-27-11-27-31/
     RDKit          3D

 25 27  0  0  0  0  0  0  0  0999 V2000
  -28.0162   -0.8135   28.8779 C   0  0  0  0  0  0  0  0  0  0  0  0
  -28.4690   -0.7850   29.8287 C   0  0  0  0  0  0  0  0  0  0  0  0
  -27.1356    0.2359   28.5352 C   0  0  0  0  0  0  0  0  0  0  0  0
  -26.8745    1.2825   29.3982 C   0  0  0  0  0  0  0  0  0  0  0  0
  -28.3613    0.1987   30.9244 C   0  0  0  0  0  0  0  0  0  0  0  0
  -27.5277    1.2234   30.6356 C   0  0  0  0  0  0  0  0  0  0  0  0
  -26.3987    0.2949   27.2279 C   0  0  0  0  0  0  0  0  0  0  0  0
  -26.8913    0.5126   26.1471 N   0  0  0  0  0  0  0  0  0  0  0  0
  -25.0165    0.0107   27.2496 N   0  0  0  0  0  0  0  0  0  0  0  0
  -28.1784    0.8138   25.8819 C   0  0  0  0  0  0  0  0  0  0  0  0
  -28.6210    0.8149   24.5551 C   0  0  0  0  0  0  0  0  0  0  0  0
  -23.9820    0.4302   27.3310 C   0  0  0  0  0  0  0  0  0  0  0  0
  -23.4157    1.1112   28.4424 C   0  0  0  0  0  0  0  0  0  0  0  0
  -22.3075    1.0723   28.8926 C   0  0  0  0  0  0  0  0  0  0  0  0
  -21.2170    0.8422   27.9389 C   0  0  0  0  0  0  0  0  0  0  0  0
  -21.5998    0.7509   26.6676 C   0  0  0  0  0  0  0  0  0  0  0  0
  -22.9346    0.3684   26.3814 C   0  0  0  0  0  0  0  0  0  0  0  0
  -28.7054    2.0653   26.5142 C   0  0  0  0  0  0  0  0  0  0  0  0
  -30.0416    2.4865   26.2911 C   0  0  0  0  0  0  0  0  0  0  0  0
  -30.3563    2.4999   24.8706 C   0  0  0  0  0  0  0  0  0  0  0  0
  -29.8453    1.4193   24.1048 C   0  0  0  0  0  0  0  0  0  0  0  0
  -30.2018    3.8684   26.8960 C   0  0  0  0  0  0  0  0  0  0  0  0
  -31.3826    4.0530   27.6243 C   0  0  0  0  0  0  0  0  0  0  0  0
  -32.0638    3.1885   28.1344 C   0  0  0  0  0  0  0  0  0  0  0  0
  -31.7953    1.8234   27.6545 C   0  0  0  0  0  0  0  0  0  0  0  0
  3  7  1  0
  7  8  2  3
  7  9  1  0
  8 10  1  0
  9 12  1  0
 19 22  1  0
 22 23  1  0
 23 24  2  3
 24 25  1  0
 12 13  2  0
 13 14  1  0
 14 15  2  0
 15 16  1  0
 16 17  2  0
 17 12  1  0
 10 11  2  0
 11 21  1  0
 21 20  2  0
 20 19  1  0
 19 18  2  0
 18 10  1  0
  1  2  2  0
  2  5  1  0
  5  6  2  0
  6  4  1  0
  4  3  2  0
  3  1  1  0
M  END

$$$$
