No_2392-gen_results/8p0m/2024-11-27-11-27-31/
     RDKit          3D

 10 10  0  0  0  0  0  0  0  0999 V2000
  -28.0162   -0.8135   28.8779 C   0  0  0  0  0  0  0  0  0  0  0  0
  -27.0636   -0.1189   28.6079 C   0  0  0  0  0  0  0  0  0  0  0  0
  -27.0010    0.6913   27.4910 C   0  0  0  0  0  0  0  0  0  0  0  0
  -28.1373    0.7363   26.6350 C   0  0  0  0  0  0  0  0  0  0  0  0
  -28.1438    1.4322   25.4880 C   0  0  0  0  0  0  0  0  0  0  0  0
  -27.9664   -1.5880   30.1570 C   0  0  0  0  0  0  0  0  0  0  0  0
  -26.7680   -1.7451   30.7819 C   0  0  0  0  0  0  0  0  0  0  0  0
  -25.6298   -1.1358   30.3719 C   0  0  0  0  0  0  0  0  0  0  0  0
  -25.7250   -0.2921   29.2949 C   0  0  0  0  0  0  0  0  0  0  0  0
  -26.9629    2.1405   25.0461 C   0  0  0  0  0  0  0  0  0  0  0  0
  3  4  1  0
  4  5  2  3
  5 10  1  0
  3  2  1  0
  1  2  2  0
  2  9  1  0
  9  8  2  0
  8  7  1  0
  7  6  2  0
  6  1  1  0
M  END

$$$$
