No_2571-gen_results/8p0m/2024-11-27-11-27-31/
     RDKit          3D

 24 27  0  0  0  0  0  0  0  0999 V2000
  -28.0162   -0.8135   28.8779 C   0  0  0  0  0  0  0  0  0  0  0  0
  -28.4690   -0.7850   29.8287 C   0  0  0  0  0  0  0  0  0  0  0  0
  -28.1816    0.4277   28.1134 C   0  0  0  0  0  0  0  0  0  0  0  0
  -28.9841    1.4155   28.5154 C   0  0  0  0  0  0  0  0  0  0  0  0
  -29.3802    0.1384   30.4612 C   0  0  0  0  0  0  0  0  0  0  0  0
  -29.5415    1.2736   29.7242 C   0  0  0  0  0  0  0  0  0  0  0  0
  -27.4452    0.4872   26.7726 C   0  0  0  0  0  0  0  0  0  0  0  0
  -27.8631    0.8051   25.7558 C   0  0  0  0  0  0  0  0  0  0  0  0
  -27.5624    0.6233   24.7616 C   0  0  0  0  0  0  0  0  0  0  0  0
  -26.1711    0.0132   24.5067 C   0  0  0  0  0  0  0  0  0  0  0  0
  -25.5018   -0.3100   25.6410 C   0  0  0  0  0  0  0  0  0  0  0  0
  -26.1240   -0.1862   26.8188 C   0  0  0  0  0  0  0  0  0  0  0  0
  -30.4616    2.3888   30.2330 C   0  0  0  0  0  0  0  0  0  0  0  0
  -30.5334    2.7840   31.3035 N   0  0  0  0  0  0  0  0  0  0  0  0
  -31.1250    2.9523   29.2551 O   0  0  0  0  0  0  0  0  0  0  0  0
  -29.7403    2.3157   32.4450 C   0  0  0  0  0  0  0  0  0  0  0  0
  -29.2757    2.7807   33.2826 C   0  0  0  0  0  0  0  0  0  0  0  0
  -28.4783    2.1806   34.4073 C   0  0  0  0  0  0  0  0  0  0  0  0
  -28.2029    0.8075   34.2780 C   0  0  0  0  0  0  0  0  0  0  0  0
  -28.6957    0.2073   33.1858 C   0  0  0  0  0  0  0  0  0  0  0  0
  -29.4044    0.8742   32.2806 C   0  0  0  0  0  0  0  0  0  0  0  0
  -30.9216    0.1929   32.5277 C   0  0  0  0  0  0  0  0  0  0  0  0
  -30.7625   -0.6219   30.6434 C   0  0  0  0  0  0  0  0  0  0  0  0
  -31.2132   -0.6962   31.7653 C   0  0  0  0  0  0  0  0  0  0  0  0
  3  7  1  0
  6 13  1  0
 13 14  1  0
 13 15  2  0
 14 16  1  0
 21 22  1  0
  5 23  1  0
 22 24  2  3
 23 24  1  0
  1  2  2  0
  2  5  1  0
  5  6  2  0
  6  4  1  0
  4  3  2  0
  3  1  1  0
  7  8  2  0
  8  9  1  0
  9 10  2  0
 10 11  1  0
 11 12  2  0
 12  7  1  0
 16 17  2  0
 17 18  1  0
 18 19  2  0
 19 20  1  0
 20 21  2  0
 21 16  1  0
M  END

$$$$
