No_229-gen_results/8p0m/2024-11-27-11-27-31/
     RDKit          3D

 17 18  0  0  0  0  0  0  0  0999 V2000
  -28.0162   -0.8135   28.8779 C   0  0  0  0  0  0  0  0  0  0  0  0
  -27.0636   -0.1189   28.6079 C   0  0  0  0  0  0  0  0  0  0  0  0
  -25.7923   -0.4302   29.0761 C   0  0  0  0  0  0  0  0  0  0  0  0
  -25.5756   -1.5654   29.9363 C   0  0  0  0  0  0  0  0  0  0  0  0
  -26.7354   -2.3004   30.2173 C   0  0  0  0  0  0  0  0  0  0  0  0
  -27.9184   -1.9537   29.7629 C   0  0  0  0  0  0  0  0  0  0  0  0
  -27.3243    1.0850   27.8190 C   0  0  0  0  0  0  0  0  0  0  0  0
  -27.7568    2.0125   28.0222 C   0  0  0  0  0  0  0  0  0  0  0  0
  -26.6181    0.8694   26.4216 C   0  0  0  0  0  0  0  0  0  0  0  0
  -25.8170   -0.1623   26.0470 C   0  0  0  0  0  0  0  0  0  0  0  0
  -27.9965    3.1459   27.1060 C   0  0  0  0  0  0  0  0  0  0  0  0
  -27.4448    3.0820   25.8136 C   0  0  0  0  0  0  0  0  0  0  0  0
  -26.7354    1.9586   25.4930 C   0  0  0  0  0  0  0  0  0  0  0  0
  -29.0786   -2.7681   30.2250 C   0  0  0  0  0  0  0  0  0  0  0  0
  -29.2894   -3.1110   31.3302 Cl  0  0  0  0  0  0  0  0  0  0  0  0
  -29.8850   -2.9476   29.2049 F   0  0  0  0  0  0  0  0  0  0  0  0
  -24.4162   -1.8528   30.3247 F   0  0  0  0  0  0  0  0  0  0  0  0
  2  7  1  0
  9 10  1  0
  6 14  1  0
 14 15  1  0
 14 16  1  0
  4 17  1  0
  1  2  2  0
  2  3  1  0
  3  4  2  0
  4  5  1  0
  5  6  2  0
  6  1  1  0
  7  8  2  0
  8 11  1  0
 11 12  2  0
 12 13  1  0
 13  9  2  0
  9  7  1  0
M  END

$$$$
