No_25-gen_results/8p0m/2024-11-27-11-27-31/
     RDKit          3D

 35 38  0  0  0  0  0  0  0  0999 V2000
  -28.0162   -0.8135   28.8779 C   0  0  0  0  0  0  0  0  0  0  0  0
  -28.4690   -0.7850   29.8287 C   0  0  0  0  0  0  0  0  0  0  0  0
  -27.0871    0.2903   28.6377 C   0  0  0  0  0  0  0  0  0  0  0  0
  -26.2516    0.4114   27.4223 C   0  0  0  0  0  0  0  0  0  0  0  0
  -28.3913    0.1041   30.9805 C   0  0  0  0  0  0  0  0  0  0  0  0
  -27.5332    1.1666   30.7866 C   0  0  0  0  0  0  0  0  0  0  0  0
  -26.8281    1.2557   29.6454 C   0  0  0  0  0  0  0  0  0  0  0  0
  -25.1382    0.6746   27.2309 C   0  0  0  0  0  0  0  0  0  0  0  0
  -24.3156    0.8664   28.4421 C   0  0  0  0  0  0  0  0  0  0  0  0
  -23.3529    0.3537   28.6370 C   0  0  0  0  0  0  0  0  0  0  0  0
  -22.3331    0.6854   29.7209 C   0  0  0  0  0  0  0  0  0  0  0  0
  -22.6783    0.6480   30.7118 Cl  0  0  0  0  0  0  0  0  0  0  0  0
  -25.0448    1.6726   29.5559 C   0  0  0  0  0  0  0  0  0  0  0  0
  -21.1090    0.7492   29.2216 F   0  0  0  0  0  0  0  0  0  0  0  0
  -29.6864   -1.8518   30.1462 C   0  0  0  0  0  0  0  0  0  0  0  0
  -29.3080   -2.9926   30.5648 O   0  0  0  0  0  0  0  0  0  0  0  0
  -30.8673   -1.6294   29.9889 O   0  0  0  0  0  0  0  0  0  0  0  0
  -27.4816    2.2910   31.6331 C   0  0  0  0  0  0  0  0  0  0  0  0
  -27.9878    3.3411   31.4807 O   0  0  0  0  0  0  0  0  0  0  0  0
  -26.8254    1.9915   32.8454 O   0  0  0  0  0  0  0  0  0  0  0  0
  -27.0327   -0.0479   26.3083 O   0  0  0  0  0  0  0  0  0  0  0  0
  -26.6285    0.4081   25.1155 C   0  0  0  0  0  0  0  0  0  0  0  0
  -30.0090   -4.1727   30.2637 C   0  0  0  0  0  0  0  0  0  0  0  0
  -30.1626   -4.6489   29.2072 C   0  0  0  0  0  0  0  0  0  0  0  0
  -31.1231   -5.7509   28.9827 C   0  0  0  0  0  0  0  0  0  0  0  0
  -31.5849   -6.4326   30.1015 C   0  0  0  0  0  0  0  0  0  0  0  0
  -30.4234   -4.8452   31.5726 C   0  0  0  0  0  0  0  0  0  0  0  0
  -31.2589   -5.9451   31.4080 C   0  0  0  0  0  0  0  0  0  0  0  0
  -31.3822   -6.3593   27.4385 Cl  0  0  0  0  0  0  0  0  0  0  0  0
  -24.4522    0.7539   26.0782 C   0  0  0  0  0  0  0  0  0  0  0  0
  -25.2184    0.4740   24.9678 C   0  0  0  0  0  0  0  0  0  0  0  0
  -27.4932    0.0600   24.0592 C   0  0  0  0  0  0  0  0  0  0  0  0
  -28.6036    1.0318   24.0805 C   0  0  0  0  0  0  0  0  0  0  0  0
  -29.5056    0.9159   25.0780 C   0  0  0  0  0  0  0  0  0  0  0  0
  -30.5080    1.8637   25.1688 C   0  0  0  0  0  0  0  0  0  0  0  0
 10 11  1  0
 11 12  1  0
 11 14  1  0
  2 15  1  0
 15 16  1  0
 15 17  2  0
  6 18  1  0
 18 19  2  0
 18 20  1  0
  4 21  1  0
 21 22  1  0
 16 23  1  0
 25 29  1  0
  8 30  1  0
 22 31  1  0
 30 31  2  0
 22 32  1  0
 32 33  1  0
 33 34  1  0
 34 35  2  0
 10  9  1  0
  3  4  2  0
  4  8  1  0
  8  9  2  0
  9 13  1  0
 13  7  2  0
 23 24  2  0
 24 25  1  0
 25 26  2  0
 26 28  1  0
 28 27  2  0
 27 23  1  0
  1  2  2  0
  2  5  1  0
  5  6  2  0
  6  7  1  0
  7  3  1  0
  3  1  1  0
M  END

$$$$
