No_2451-gen_results/8p0m/2024-11-27-11-27-31/
     RDKit          3D

 35 39  0  0  0  0  0  0  0  0999 V2000
  -28.0162   -0.8135   28.8779 C   0  0  0  0  0  0  0  0  0  0  0  0
  -28.4690   -0.7850   29.8287 C   0  0  0  0  0  0  0  0  0  0  0  0
  -26.5042   -0.7777   28.8766 C   0  0  0  0  0  0  0  0  0  0  0  0
  -25.8103   -0.8531   30.1028 C   0  0  0  0  0  0  0  0  0  0  0  0
  -27.9906   -0.8916   31.2257 C   0  0  0  0  0  0  0  0  0  0  0  0
  -26.6042   -0.8676   31.2652 C   0  0  0  0  0  0  0  0  0  0  0  0
  -30.0417   -0.7687   29.6526 C   0  0  0  0  0  0  0  0  0  0  0  0
  -30.5239   -0.1500   28.7686 N   0  0  0  0  0  0  0  0  0  0  0  0
  -30.8791   -1.5699   30.6121 C   0  0  0  0  0  0  0  0  0  0  0  0
  -32.2485   -1.5926   30.3332 C   0  0  0  0  0  0  0  0  0  0  0  0
  -31.8661   -0.1699   28.4802 C   0  0  0  0  0  0  0  0  0  0  0  0
  -32.6965   -0.8571   29.2797 C   0  0  0  0  0  0  0  0  0  0  0  0
  -32.2894    0.5242   27.4710 O   0  0  0  0  0  0  0  0  0  0  0  0
  -24.3761   -0.8063   30.1669 C   0  0  0  0  0  0  0  0  0  0  0  0
  -23.8322    0.5215   30.0068 C   0  0  0  0  0  0  0  0  0  0  0  0
  -22.6179    0.6331   29.2607 C   0  0  0  0  0  0  0  0  0  0  0  0
  -21.8661   -0.5408   29.0118 C   0  0  0  0  0  0  0  0  0  0  0  0
  -22.4723   -1.7767   29.1470 C   0  0  0  0  0  0  0  0  0  0  0  0
  -23.6781   -1.9361   29.7401 C   0  0  0  0  0  0  0  0  0  0  0  0
  -25.7960   -0.6724   27.7570 O   0  0  0  0  0  0  0  0  0  0  0  0
  -26.1672    0.1493   26.7645 C   0  0  0  0  0  0  0  0  0  0  0  0
  -26.3894    1.2290   26.8338 C   0  0  0  0  0  0  0  0  0  0  0  0
  -25.6967   -0.4432   25.4781 C   0  0  0  0  0  0  0  0  0  0  0  0
  -26.7138    2.1116   25.7658 C   0  0  0  0  0  0  0  0  0  0  0  0
  -25.9073    0.3022   24.3404 C   0  0  0  0  0  0  0  0  0  0  0  0
  -26.3838    1.5831   24.4917 C   0  0  0  0  0  0  0  0  0  0  0  0
  -34.1757   -0.8444   28.9908 C   0  0  0  0  0  0  0  0  0  0  0  0
  -34.8801   -1.8207   29.3127 C   0  0  0  0  0  0  0  0  0  0  0  0
  -34.3463   -2.9242   29.9781 C   0  0  0  0  0  0  0  0  0  0  0  0
  -33.0375   -2.8238   30.5848 C   0  0  0  0  0  0  0  0  0  0  0  0
  -20.6928   -0.1692   28.4065 O   0  0  0  0  0  0  0  0  0  0  0  0
  -35.1709   -3.8835   30.5548 O   0  0  0  0  0  0  0  0  0  0  0  0
  -35.2164   -5.0237   29.8875 C   0  0  0  0  0  0  0  0  0  0  0  0
  -34.1103   -5.7155   29.5974 C   0  0  0  0  0  0  0  0  0  0  0  0
  -33.5436   -5.7316   28.5702 C   0  0  0  0  0  0  0  0  0  0  0  0
  2  7  1  0
  7  9  1  0
  8 11  1  0
 11 12  1  0
 11 13  2  0
  4 14  1  0
  3 20  1  0
 20 21  1  0
 17 31  1  0
 29 32  1  0
 32 33  1  0
 33 34  2  3
 34 35  1  0
  8  7  1  0
  9 10  1  0
 14 15  2  0
 15 16  1  0
 16 17  2  0
 17 18  1  0
 18 19  2  0
 19 14  1  0
 21 22  2  0
 22 24  1  0
 24 26  2  0
 26 25  1  0
 25 23  2  0
 23 21  1  0
 10 12  2  0
 12 27  1  0
 27 28  2  0
 28 29  1  0
 29 30  2  0
 30 10  1  0
  1  2  2  0
  2  5  1  0
  5  6  2  0
  6  4  1  0
  4  3  2  0
  3  1  1  0
M  END

$$$$
