No_2608-gen_results/8p0m/2024-11-27-11-27-31/
     RDKit          3D

 13 13  0  0  0  0  0  0  0  0999 V2000
  -28.0162   -0.8135   28.8779 C   0  0  0  0  0  0  0  0  0  0  0  0
  -27.0636   -0.1190   28.6079 C   0  0  0  0  0  0  0  0  0  0  0  0
  -26.9716    0.7139   27.5060 C   0  0  0  0  0  0  0  0  0  0  0  0
  -25.8205    1.4909   27.1160 C   0  0  0  0  0  0  0  0  0  0  0  0
  -24.6562    1.4242   27.9180 C   0  0  0  0  0  0  0  0  0  0  0  0
  -24.6847    0.5901   29.0659 C   0  0  0  0  0  0  0  0  0  0  0  0
  -25.8099   -0.1266   29.3338 C   0  0  0  0  0  0  0  0  0  0  0  0
  -28.7097   -0.5805   30.0246 N   0  0  0  0  0  0  0  0  0  0  0  0
  -23.3336    2.0020   27.7517 C   0  0  0  0  0  0  0  0  0  0  0  0
  -23.2081    2.9211   26.8943 O   0  0  0  0  0  0  0  0  0  0  0  0
  -22.2569    1.6894   28.3815 O   0  0  0  0  0  0  0  0  0  0  0  0
  -28.5217    0.4037   30.7136 C   0  0  0  0  0  0  0  0  0  0  0  0
  -29.3519    0.5297   32.0289 C   0  0  0  0  0  0  0  0  0  0  0  0
  1  8  1  0
  5  9  1  0
  9 10  2  0
  9 11  1  0
  8 12  2  3
 12 13  1  0
  1  2  1  0
  2  3  2  0
  3  4  1  0
  4  5  2  0
  5  6  1  0
  6  7  2  0
  7  2  1  0
M  END

$$$$
