No_2892-gen_results/8p0m/2024-11-27-11-27-31/
     RDKit          3D

 18 18  0  0  0  0  0  0  0  0999 V2000
  -27.9505   -0.5786   29.0402 P   0  0  0  0  0  0  0  0  0  0  0  0
  -27.2401    0.0613   28.4283 O   0  0  0  0  0  0  0  0  0  0  0  0
  -29.3621   -0.5774   28.6194 O   0  0  0  0  0  0  0  0  0  0  0  0
  -27.9298   -0.0063   30.5563 O   0  0  0  0  0  0  0  0  0  0  0  0
  -27.5440   -2.0509   29.4296 O   0  0  0  0  0  0  0  0  0  0  0  0
  -26.8322    1.3498   28.4349 C   0  0  0  0  0  0  0  0  0  0  0  0
  -26.2108    1.7860   27.3348 C   0  0  0  0  0  0  0  0  0  0  0  0
  -24.8655    1.6039   27.3383 C   0  0  0  0  0  0  0  0  0  0  0  0
  -23.9701    2.5173   26.7302 C   0  0  0  0  0  0  0  0  0  0  0  0
  -24.2409    0.4350   27.8576 C   0  0  0  0  0  0  0  0  0  0  0  0
  -22.5397    2.2841   26.6812 C   0  0  0  0  0  0  0  0  0  0  0  0
  -22.8524    0.3086   27.9915 C   0  0  0  0  0  0  0  0  0  0  0  0
  -22.0008    1.2459   27.4464 C   0  0  0  0  0  0  0  0  0  0  0  0
  -26.8475    1.2821   25.9923 C   0  0  0  0  0  0  0  0  0  0  0  0
  -26.3950    3.3069   27.2623 C   0  0  0  0  0  0  0  0  0  0  0  0
  -26.2635   -2.3103   29.8500 C   0  0  0  0  0  0  0  0  0  0  0  0
  -25.6619   -3.4016   29.5524 C   0  0  0  0  0  0  0  0  0  0  0  0
  -24.2923   -3.3375   29.1117 C   0  0  0  0  0  0  0  0  0  0  0  0
  1  2  1  0
  1  3  2  0
  1  4  1  0
  1  5  1  0
  2  6  1  0
  6  7  1  0
  7  8  1  0
  7 14  1  0
  7 15  1  0
  5 16  1  0
 16 17  2  3
 17 18  1  0
  8  9  2  0
  9 11  1  0
 11 13  2  0
 13 12  1  0
 12 10  2  0
 10  8  1  0
M  END

$$$$
