No_2939-gen_results/8p0m/2024-11-27-11-27-31/
     RDKit          3D

 18 19  0  0  0  0  0  0  0  0999 V2000
  -28.0162   -0.8135   28.8779 C   0  0  0  0  0  0  0  0  0  0  0  0
  -28.4690   -0.7850   29.8287 C   0  0  0  0  0  0  0  0  0  0  0  0
  -27.0871    0.2903   28.6377 C   0  0  0  0  0  0  0  0  0  0  0  0
  -26.2516    0.4114   27.4223 C   0  0  0  0  0  0  0  0  0  0  0  0
  -28.3913    0.1041   30.9805 C   0  0  0  0  0  0  0  0  0  0  0  0
  -27.5332    1.1666   30.7866 C   0  0  0  0  0  0  0  0  0  0  0  0
  -26.8281    1.2557   29.6454 C   0  0  0  0  0  0  0  0  0  0  0  0
  -25.1385    0.6748   27.2307 C   0  0  0  0  0  0  0  0  0  0  0  0
  -24.5123    1.0054   25.9531 C   0  0  0  0  0  0  0  0  0  0  0  0
  -25.2548    0.5903   24.8009 C   0  0  0  0  0  0  0  0  0  0  0  0
  -26.8694    0.1284   26.0855 C   0  0  0  0  0  0  0  0  0  0  0  0
  -26.4252    0.2291   24.9552 C   0  0  0  0  0  0  0  0  0  0  0  0
  -27.1444   -0.1185   23.8783 F   0  0  0  0  0  0  0  0  0  0  0  0
  -29.3937   -1.8726   30.1423 O   0  0  0  0  0  0  0  0  0  0  0  0
  -28.8973   -3.1450   30.4829 C   0  0  0  0  0  0  0  0  0  0  0  0
  -29.8237   -4.1867   30.3151 C   0  0  0  0  0  0  0  0  0  0  0  0
  -30.0556   -4.5395   29.1542 F   0  0  0  0  0  0  0  0  0  0  0  0
  -29.2571   -5.3706   30.9299 F   0  0  0  0  0  0  0  0  0  0  0  0
  3  4  1  0
 12 13  1  0
  2 14  1  0
 14 15  1  0
 15 16  2  3
 16 17  1  0
 16 18  1  0
  4  8  2  0
  8  9  1  0
  9 10  2  0
 10 12  1  0
 12 11  2  0
 11  4  1  0
  1  2  2  0
  2  5  1  0
  5  6  2  0
  6  7  1  0
  7  3  2  0
  3  1  1  0
M  END

$$$$
