No_2070-gen_results/8p0m/2024-11-27-11-27-31/
     RDKit          3D

 12 13  0  0  0  0  0  0  0  0999 V2000
  -28.0162   -0.8135   28.8779 C   0  0  0  0  0  0  0  0  0  0  0  0
  -27.0636   -0.1189   28.6079 C   0  0  0  0  0  0  0  0  0  0  0  0
  -25.7923   -0.4302   29.0761 C   0  0  0  0  0  0  0  0  0  0  0  0
  -24.5456    0.3494   28.8225 C   0  0  0  0  0  0  0  0  0  0  0  0
  -24.6586    1.4196   27.8878 C   0  0  0  0  0  0  0  0  0  0  0  0
  -23.5403    2.1791   27.5500 C   0  0  0  0  0  0  0  0  0  0  0  0
  -22.2925    1.7428   28.0473 C   0  0  0  0  0  0  0  0  0  0  0  0
  -22.1712    0.7079   28.9284 C   0  0  0  0  0  0  0  0  0  0  0  0
  -23.3345   -0.0624   29.3081 C   0  0  0  0  0  0  0  0  0  0  0  0
  -27.9546   -1.8765   29.8726 C   0  0  0  0  0  0  0  0  0  0  0  0
  -26.7258   -2.3300   30.3106 C   0  0  0  0  0  0  0  0  0  0  0  0
  -25.6021   -1.5640   29.9668 C   0  0  0  0  0  0  0  0  0  0  0  0
  3  4  1  0
  1  2  2  0
  2  3  1  0
  3 12  2  0
 12 11  1  0
 11 10  2  0
 10  1  1  0
  4  5  2  0
  5  6  1  0
  6  7  2  0
  7  8  1  0
  8  9  2  0
  9  4  1  0
M  END

$$$$
