No_2397-gen_results/8p0m/2024-11-27-11-27-31/
     RDKit          3D

 35 39  0  0  0  0  0  0  0  0999 V2000
  -28.0162   -0.8135   28.8779 C   0  0  0  0  0  0  0  0  0  0  0  0
  -27.0636   -0.1189   28.6079 C   0  0  0  0  0  0  0  0  0  0  0  0
  -25.7647   -0.3897   29.0360 C   0  0  0  0  0  0  0  0  0  0  0  0
  -24.5516    0.4058   28.7646 C   0  0  0  0  0  0  0  0  0  0  0  0
  -23.2300    0.1178   29.2575 C   0  0  0  0  0  0  0  0  0  0  0  0
  -23.0942   -1.1309   29.8730 C   0  0  0  0  0  0  0  0  0  0  0  0
  -27.7980   -1.9341   29.8560 C   0  0  0  0  0  0  0  0  0  0  0  0
  -26.5420   -2.3269   30.2580 C   0  0  0  0  0  0  0  0  0  0  0  0
  -25.4514   -1.5516   29.9079 C   0  0  0  0  0  0  0  0  0  0  0  0
  -24.1562   -1.9097   30.2809 C   0  0  0  0  0  0  0  0  0  0  0  0
  -24.6450    1.6582   27.9464 C   0  0  0  0  0  0  0  0  0  0  0  0
  -24.8958    2.7559   28.5615 C   0  0  0  0  0  0  0  0  0  0  0  0
  -25.7918    3.5939   28.0297 C   0  0  0  0  0  0  0  0  0  0  0  0
  -25.9449    3.5871   26.6052 C   0  0  0  0  0  0  0  0  0  0  0  0
  -24.6850    1.5903   26.5474 C   0  0  0  0  0  0  0  0  0  0  0  0
  -25.4717    2.4969   25.8996 C   0  0  0  0  0  0  0  0  0  0  0  0
  -28.9126   -2.6736   30.1820 O   0  0  0  0  0  0  0  0  0  0  0  0
  -28.7858   -3.9658   30.5535 C   0  0  0  0  0  0  0  0  0  0  0  0
  -30.1189   -4.6824   30.3299 C   0  0  0  0  0  0  0  0  0  0  0  0
  -30.6577   -4.7083   29.2999 O   0  0  0  0  0  0  0  0  0  0  0  0
  -30.5426   -5.5162   31.3934 N   0  0  0  0  0  0  0  0  0  0  0  0
  -29.9274   -5.5576   32.7419 C   0  0  0  0  0  0  0  0  0  0  0  0
  -26.1209    4.9073   28.7076 C   0  0  0  0  0  0  0  0  0  0  0  0
  -26.4405    4.9833   29.7440 O   0  0  0  0  0  0  0  0  0  0  0  0
  -26.0325    6.1028   27.9475 N   0  0  0  0  0  0  0  0  0  0  0  0
  -26.3186    7.3980   28.5300 C   0  0  0  0  0  0  0  0  0  0  0  0
  -26.3877    8.3548   27.6959 C   0  0  0  0  0  0  0  0  0  0  0  0
  -25.9023    8.2971   26.3821 C   0  0  0  0  0  0  0  0  0  0  0  0
  -25.3738    7.0620   25.9433 C   0  0  0  0  0  0  0  0  0  0  0  0
  -25.4698    6.0113   26.6953 C   0  0  0  0  0  0  0  0  0  0  0  0
  -25.4371    4.8068   26.0872 N   0  0  0  0  0  0  0  0  0  0  0  0
  -31.3142   -6.6704   31.0131 C   0  0  0  0  0  0  0  0  0  0  0  0
  -27.5114    3.5231   26.3616 C   0  0  0  0  0  0  0  0  0  0  0  0
  -28.1205    2.9878   25.3716 C   0  0  0  0  0  0  0  0  0  0  0  0
  -29.1341    2.5899   25.4970 C   0  0  0  0  0  0  0  0  0  0  0  0
  4 11  1  0
 11 12  1  0
 13 14  1  0
 11 15  1  0
 14 16  1  0
  7 17  1  0
 17 18  1  0
 18 19  1  0
 19 20  2  0
 19 21  1  0
 21 22  1  0
 13 23  1  0
 23 24  2  0
 23 25  1  0
 25 26  1  0
 27 28  1  0
 25 30  1  0
 29 30  1  0
 14 31  1  0
 30 31  1  0
 21 32  1  0
 14 33  1  0
 33 34  1  0
 34 35  2  0
 26 27  1  0
 28 29  1  0
 13 12  1  0
 15 16  1  0
  1  2  2  0
  2  3  1  0
  9  8  1  0
  8  7  2  0
  7  1  1  0
  3  4  2  0
  4  5  1  0
  5  6  2  0
  6 10  1  0
 10  9  2  0
  9  3  1  0
M  END

$$$$
