No_2504-gen_results/8p0m/2024-11-27-11-27-31/
     RDKit          3D

 17 18  0  0  0  0  0  0  0  0999 V2000
  -28.0162   -0.8135   28.8779 C   0  0  0  0  0  0  0  0  0  0  0  0
  -27.0636   -0.1189   28.6079 C   0  0  0  0  0  0  0  0  0  0  0  0
  -26.9716    0.7139   27.5060 C   0  0  0  0  0  0  0  0  0  0  0  0
  -28.1053    0.7744   26.6421 C   0  0  0  0  0  0  0  0  0  0  0  0
  -29.2041    0.1179   27.0477 C   0  0  0  0  0  0  0  0  0  0  0  0
  -29.2127   -0.6088   28.1281 C   0  0  0  0  0  0  0  0  0  0  0  0
  -25.5373    1.5799   27.0783 Cl  0  0  0  0  0  0  0  0  0  0  0  0
  -30.3039    0.2234   26.1995 N   0  0  0  0  0  0  0  0  0  0  0  0
  -25.6726   -0.1940   29.4192 C   0  0  0  0  0  0  0  0  0  0  0  0
  -24.7778   -1.0388   29.0175 C   0  0  0  0  0  0  0  0  0  0  0  0
  -23.5065   -1.0613   29.5859 C   0  0  0  0  0  0  0  0  0  0  0  0
  -23.2356   -0.0888   30.5670 C   0  0  0  0  0  0  0  0  0  0  0  0
  -24.2074    0.8585   30.9537 C   0  0  0  0  0  0  0  0  0  0  0  0
  -25.4814    0.8212   30.3173 C   0  0  0  0  0  0  0  0  0  0  0  0
  -28.0697   -1.5770   29.9970 F   0  0  0  0  0  0  0  0  0  0  0  0
  -30.2601    0.2534   24.8691 C   0  0  0  0  0  0  0  0  0  0  0  0
  -31.4968   -0.6367   26.5957 C   0  0  0  0  0  0  0  0  0  0  0  0
  3  7  1  0
  5  8  1  0
  2  9  1  0
  1 15  1  0
  8 16  1  0
  8 17  1  0
  1  2  2  0
  2  3  1  0
  3  4  2  0
  4  5  1  0
  5  6  2  0
  6  1  1  0
  9 10  2  0
 10 11  1  0
 11 12  2  0
 12 13  1  0
 13 14  2  0
 14  9  1  0
M  END

$$$$
