No_2934-gen_results/8p0m/2024-11-27-11-27-31/
     RDKit          3D

 22 23  0  0  0  0  0  0  0  0999 V2000
  -28.0162   -0.8135   28.8779 C   0  0  0  0  0  0  0  0  0  0  0  0
  -27.0636   -0.1190   28.6079 C   0  0  0  0  0  0  0  0  0  0  0  0
  -25.7647   -0.3897   29.0360 C   0  0  0  0  0  0  0  0  0  0  0  0
  -25.5296   -1.5302   29.9014 C   0  0  0  0  0  0  0  0  0  0  0  0
  -26.6888   -2.2893   30.1810 C   0  0  0  0  0  0  0  0  0  0  0  0
  -27.8727   -1.9508   29.7373 C   0  0  0  0  0  0  0  0  0  0  0  0
  -24.5491    0.4100   28.7341 C   0  0  0  0  0  0  0  0  0  0  0  0
  -24.5413    0.8962   27.5953 F   0  0  0  0  0  0  0  0  0  0  0  0
  -23.3814   -0.3846   28.8484 F   0  0  0  0  0  0  0  0  0  0  0  0
  -24.3736    1.3916   29.6595 F   0  0  0  0  0  0  0  0  0  0  0  0
  -28.9576   -2.6961   30.1093 O   0  0  0  0  0  0  0  0  0  0  0  0
  -28.7464   -3.9578   30.6325 C   0  0  0  0  0  0  0  0  0  0  0  0
  -29.9496   -4.5827   31.1811 C   0  0  0  0  0  0  0  0  0  0  0  0
  -29.8208   -5.7313   31.7346 C   0  0  0  0  0  0  0  0  0  0  0  0
  -30.9774   -6.4179   32.2511 C   0  0  0  0  0  0  0  0  0  0  0  0
  -32.2341   -5.8061   32.1295 C   0  0  0  0  0  0  0  0  0  0  0  0
  -32.3133   -4.5934   31.5215 C   0  0  0  0  0  0  0  0  0  0  0  0
  -31.1823   -3.9526   31.0630 C   0  0  0  0  0  0  0  0  0  0  0  0
  -27.6879   -4.5681   30.6079 O   0  0  0  0  0  0  0  0  0  0  0  0
  -33.6527   -3.9231   31.3993 C   0  0  0  0  0  0  0  0  0  0  0  0
  -33.8139   -3.2520   30.5907 O   0  0  0  0  0  0  0  0  0  0  0  0
  -34.3290   -3.9364   32.4993 O   0  0  0  0  0  0  0  0  0  0  0  0
  3  7  1  0
  7  8  1  0
  7  9  1  0
  7 10  1  0
  6 11  1  0
 11 12  1  0
 12 13  1  0
 12 19  2  0
 17 20  1  0
 20 21  1  0
 20 22  2  0
  1  2  2  0
  2  3  1  0
  3  4  2  0
  4  5  1  0
  5  6  2  0
  6  1  1  0
 13 14  2  0
 14 15  1  0
 15 16  2  0
 16 17  1  0
 17 18  2  0
 18 13  1  0
M  END

$$$$
