No_2580-gen_results/8p0m/2024-11-27-11-27-31/
     RDKit          3D

 34 36  0  0  0  0  0  0  0  0999 V2000
  -28.0162   -0.8135   28.8779 C   0  0  0  0  0  0  0  0  0  0  0  0
  -28.4690   -0.7850   29.8287 C   0  0  0  0  0  0  0  0  0  0  0  0
  -27.1356    0.2359   28.5352 C   0  0  0  0  0  0  0  0  0  0  0  0
  -26.8050    1.0509   29.2763 C   0  0  0  0  0  0  0  0  0  0  0  0
  -27.3158    1.1492   30.6054 C   0  0  0  0  0  0  0  0  0  0  0  0
  -28.1917    0.1430   30.9488 C   0  0  0  0  0  0  0  0  0  0  0  0
  -26.4831    0.2096   27.1281 C   0  0  0  0  0  0  0  0  0  0  0  0
  -26.2470    1.4276   26.5801 C   0  0  0  0  0  0  0  0  0  0  0  0
  -25.6401    2.4203   27.4458 C   0  0  0  0  0  0  0  0  0  0  0  0
  -26.2194    2.3769   28.8215 C   0  0  0  0  0  0  0  0  0  0  0  0
  -25.8297    3.5357   29.6882 C   0  0  0  0  0  0  0  0  0  0  0  0
  -25.7955    4.6608   29.2285 O   0  0  0  0  0  0  0  0  0  0  0  0
  -25.4488    3.2277   30.9179 O   0  0  0  0  0  0  0  0  0  0  0  0
  -29.3470   -2.0403   30.4274 C   0  0  0  0  0  0  0  0  0  0  0  0
  -29.7792   -1.9308   31.6225 O   0  0  0  0  0  0  0  0  0  0  0  0
  -29.1508   -3.1236   29.9256 O   0  0  0  0  0  0  0  0  0  0  0  0
  -25.8397    3.8282   31.9299 C   0  0  0  0  0  0  0  0  0  0  0  0
  -25.0318    4.9281   32.2453 C   0  0  0  0  0  0  0  0  0  0  0  0
  -25.4504    5.7531   33.3908 C   0  0  0  0  0  0  0  0  0  0  0  0
  -25.1214    7.0047   33.3582 C   0  0  0  0  0  0  0  0  0  0  0  0
  -24.0877    7.4298   32.5774 C   0  0  0  0  0  0  0  0  0  0  0  0
  -23.6010    6.5912   31.5550 C   0  0  0  0  0  0  0  0  0  0  0  0
  -24.0906    5.4361   31.4656 C   0  0  0  0  0  0  0  0  0  0  0  0
  -26.7413    3.3438   32.6797 O   0  0  0  0  0  0  0  0  0  0  0  0
  -23.4817    8.8473   32.7353 C   0  0  0  0  0  0  0  0  0  0  0  0
  -23.9263    9.4719   33.4293 F   0  0  0  0  0  0  0  0  0  0  0  0
  -23.4508    9.3892   31.4536 F   0  0  0  0  0  0  0  0  0  0  0  0
  -22.1516    8.5938   33.0411 F   0  0  0  0  0  0  0  0  0  0  0  0
  -31.0656   -2.4240   31.8302 C   0  0  0  0  0  0  0  0  0  0  0  0
  -32.0683   -1.8389   31.2617 C   0  0  0  0  0  0  0  0  0  0  0  0
  -31.9627   -0.4902   31.1105 C   0  0  0  0  0  0  0  0  0  0  0  0
  -31.9560    0.2194   32.1706 N   0  0  0  0  0  0  0  0  0  0  0  0
  -32.8499    1.1738   32.4114 C   0  0  0  0  0  0  0  0  0  0  0  0
  -32.7610    1.8985   33.6766 C   0  0  0  0  0  0  0  0  0  0  0  0
 10 11  1  0
 11 12  2  0
 11 13  1  0
  2 14  1  0
 14 15  1  0
 14 16  2  0
 13 17  1  0
 17 18  1  0
 17 24  2  0
 21 25  1  0
 25 26  1  0
 25 27  1  0
 25 28  1  0
 15 29  1  0
 29 30  1  0
 30 31  1  0
 31 32  1  0
 32 33  1  0
 33 34  2  0
 18 19  2  0
 19 20  1  0
 20 21  2  0
 21 22  1  0
 22 23  2  0
 23 18  1  0
  4 10  2  0
 10  9  1  0
  9  8  2  0
  8  7  1  0
  7  3  2  0
  1  2  2  0
  2  6  1  0
  6  5  2  0
  5  4  1  0
  4  3  1  0
  3  1  1  0
M  END

$$$$
