No_2059-gen_results/8p0m/2024-11-27-11-27-31/
     RDKit          3D

 15 15  0  0  0  0  0  0  0  0999 V2000
  -28.0162   -0.8135   28.8779 C   0  0  0  0  0  0  0  0  0  0  0  0
  -27.0636   -0.1190   28.6079 C   0  0  0  0  0  0  0  0  0  0  0  0
  -26.8756    1.1325   28.9134 C   0  0  0  0  0  0  0  0  0  0  0  0
  -25.6883    1.9515   28.5672 C   0  0  0  0  0  0  0  0  0  0  0  0
  -24.6394    1.2834   27.8753 C   0  0  0  0  0  0  0  0  0  0  0  0
  -24.8068   -0.0513   27.6040 C   0  0  0  0  0  0  0  0  0  0  0  0
  -25.9019   -0.7670   27.9511 C   0  0  0  0  0  0  0  0  0  0  0  0
  -28.6392   -0.5118   30.2403 C   0  0  0  0  0  0  0  0  0  0  0  0
  -29.6536   -1.1144   30.6354 C   0  0  0  0  0  0  0  0  0  0  0  0
  -23.4500    1.9911   27.4655 C   0  0  0  0  0  0  0  0  0  0  0  0
  -22.3392    1.7407   27.7570 O   0  0  0  0  0  0  0  0  0  0  0  0
  -23.6834    2.9140   26.4851 O   0  0  0  0  0  0  0  0  0  0  0  0
  -30.2363   -2.1407   29.8413 C   0  0  0  0  0  0  0  0  0  0  0  0
  -31.1343   -2.5261   30.1132 C   0  0  0  0  0  0  0  0  0  0  0  0
  -31.9062   -2.2824   31.3421 C   0  0  0  0  0  0  0  0  0  0  0  0
  1  8  1  0
  8  9  2  3
  5 10  1  0
 10 11  2  0
 10 12  1  0
  9 13  1  0
 13 14  2  3
 14 15  1  0
  1  2  1  0
  2  3  2  0
  3  4  1  0
  4  5  2  0
  5  6  1  0
  6  7  2  0
  7  2  1  0
M  END

$$$$
