No_2051-gen_results/8p0m/2024-11-27-11-27-31/
     RDKit          3D

 14 15  0  0  0  0  0  0  0  0999 V2000
  -28.0162   -0.8135   28.8779 C   0  0  0  0  0  0  0  0  0  0  0  0
  -28.4690   -0.7850   29.8287 C   0  0  0  0  0  0  0  0  0  0  0  0
  -27.0871    0.2903   28.6377 C   0  0  0  0  0  0  0  0  0  0  0  0
  -26.7676    1.0274   29.4716 C   0  0  0  0  0  0  0  0  0  0  0  0
  -28.2764    0.0268   31.0145 C   0  0  0  0  0  0  0  0  0  0  0  0
  -27.3287    1.0538   30.7535 C   0  0  0  0  0  0  0  0  0  0  0  0
  -25.8653    2.0415   29.2470 F   0  0  0  0  0  0  0  0  0  0  0  0
  -29.5148   -1.9936   30.2525 C   0  0  0  0  0  0  0  0  0  0  0  0
  -29.3565   -3.1699   30.2284 O   0  0  0  0  0  0  0  0  0  0  0  0
  -30.8160   -1.6071   30.6087 N   0  0  0  0  0  0  0  0  0  0  0  0
  -31.2606   -0.2838   30.6247 C   0  0  0  0  0  0  0  0  0  0  0  0
  -32.6000   -0.2799   30.9184 C   0  0  0  0  0  0  0  0  0  0  0  0
  -33.2849   -1.3865   31.1156 C   0  0  0  0  0  0  0  0  0  0  0  0
  -31.8694   -2.4392   30.8738 C   0  0  0  0  0  0  0  0  0  0  0  0
  4  7  1  0
  2  8  1  0
  8  9  2  0
  8 10  1  0
 10 11  1  0
 11 12  2  0
 12 13  1  0
 10 14  1  0
 13 14  1  0
  1  2  2  0
  2  5  1  0
  5  6  2  0
  6  4  1  0
  4  3  2  0
  3  1  1  0
M  END

$$$$
