No_2084-gen_results/8p0m/2024-11-27-11-27-31/
     RDKit          3D

 27 29  0  0  0  0  0  0  0  0999 V2000
  -28.0162   -0.8135   28.8779 C   0  0  0  0  0  0  0  0  0  0  0  0
  -28.4690   -0.7850   29.8287 C   0  0  0  0  0  0  0  0  0  0  0  0
  -26.5455   -0.8762   28.8500 C   0  0  0  0  0  0  0  0  0  0  0  0
  -25.8041   -1.0324   30.0571 C   0  0  0  0  0  0  0  0  0  0  0  0
  -27.9437   -0.9869   31.2075 C   0  0  0  0  0  0  0  0  0  0  0  0
  -26.5825   -1.0386   31.2231 C   0  0  0  0  0  0  0  0  0  0  0  0
  -30.0606   -0.7371   29.9024 C   0  0  0  0  0  0  0  0  0  0  0  0
  -30.7252   -1.5544   30.2697 O   0  0  0  0  0  0  0  0  0  0  0  0
  -30.5563    0.4242   29.3124 N   0  0  0  0  0  0  0  0  0  0  0  0
  -29.8288    1.5280   28.8511 C   0  0  0  0  0  0  0  0  0  0  0  0
  -30.5544    2.3086   28.1101 C   0  0  0  0  0  0  0  0  0  0  0  0
  -29.9490    3.5517   27.6379 C   0  0  0  0  0  0  0  0  0  0  0  0
  -28.5659    3.8225   27.8851 C   0  0  0  0  0  0  0  0  0  0  0  0
  -27.8672    2.8601   28.6183 C   0  0  0  0  0  0  0  0  0  0  0  0
  -28.4513    1.8083   29.1444 C   0  0  0  0  0  0  0  0  0  0  0  0
  -25.6865   -0.8219   27.6194 C   0  0  0  0  0  0  0  0  0  0  0  0
  -25.9960   -0.0110   26.6571 N   0  0  0  0  0  0  0  0  0  0  0  0
  -25.1407    0.5956   25.9067 C   0  0  0  0  0  0  0  0  0  0  0  0
  -24.7161    1.9320   26.3174 C   0  0  0  0  0  0  0  0  0  0  0  0
  -25.2520    2.7933   26.7771 C   0  0  0  0  0  0  0  0  0  0  0  0
  -24.8200    4.0986   27.2470 C   0  0  0  0  0  0  0  0  0  0  0  0
  -23.5054    4.2261   27.1555 C   0  0  0  0  0  0  0  0  0  0  0  0
  -23.2178    2.2205   26.2135 C   0  0  0  0  0  0  0  0  0  0  0  0
  -22.6858    3.2435   26.6080 C   0  0  0  0  0  0  0  0  0  0  0  0
  -24.6847   -1.4878   27.6155 O   0  0  0  0  0  0  0  0  0  0  0  0
  -31.9814    0.4999   29.2388 C   0  0  0  0  0  0  0  0  0  0  0  0
  -32.6988   -0.5284   29.4912 C   0  0  0  0  0  0  0  0  0  0  0  0
  2  7  1  0
  7  8  2  0
  7  9  1  0
  9 10  1  0
  3 16  1  0
 16 17  1  0
 17 18  1  0
 18 19  1  0
 16 25  2  0
  9 26  1  0
 26 27  1  0
  1  2  2  0
  2  5  1  0
  5  6  2  0
  6  4  1  0
  4  3  2  0
  3  1  1  0
 10 11  2  0
 11 12  1  0
 12 13  2  0
 13 14  1  0
 14 15  2  0
 15 10  1  0
 19 20  2  0
 20 21  1  0
 21 22  2  0
 22 24  1  0
 24 23  2  0
 23 19  1  0
M  END

$$$$
