No_2950-gen_results/8p0m/2024-11-27-11-27-31/
     RDKit          3D

 17 20  0  0  0  0  0  0  0  0999 V2000
  -28.0162   -0.8135   28.8779 C   0  0  0  0  0  0  0  0  0  0  0  0
  -28.4690   -0.7850   29.8287 C   0  0  0  0  0  0  0  0  0  0  0  0
  -27.1356    0.2359   28.5352 C   0  0  0  0  0  0  0  0  0  0  0  0
  -26.8745    1.2825   29.3982 C   0  0  0  0  0  0  0  0  0  0  0  0
  -27.5070    1.2380   30.6295 C   0  0  0  0  0  0  0  0  0  0  0  0
  -28.3269    0.1637   30.9240 C   0  0  0  0  0  0  0  0  0  0  0  0
  -26.4110    0.3070   27.2192 C   0  0  0  0  0  0  0  0  0  0  0  0
  -25.0121    0.3340   27.3197 C   0  0  0  0  0  0  0  0  0  0  0  0
  -27.0431    0.3567   25.9990 C   0  0  0  0  0  0  0  0  0  0  0  0
  -28.3976    0.4539   25.8701 C   0  0  0  0  0  0  0  0  0  0  0  0
  -29.1848    0.8256   26.9203 C   0  0  0  0  0  0  0  0  0  0  0  0
  -30.4202    1.1612   26.6153 C   0  0  0  0  0  0  0  0  0  0  0  0
  -31.3770    1.5552   27.6757 C   0  0  0  0  0  0  0  0  0  0  0  0
  -30.8655    1.4846   28.9632 C   0  0  0  0  0  0  0  0  0  0  0  0
  -29.5985    1.3130   29.2762 C   0  0  0  0  0  0  0  0  0  0  0  0
  -28.7070    1.0459   28.1160 C   0  0  0  0  0  0  0  0  0  0  0  0
  -29.2025    1.8948   30.2758 O   0  0  0  0  0  0  0  0  0  0  0  0
  1  3  1  0
  3  4  1  0
  4  5  1  0
  2  6  1  0
  3  7  1  0
  7  8  1  0
  7  9  1  0
  9 10  1  0
 10 11  1  0
  3 16  1  0
  5 17  1  0
 15 17  1  0
  1  2  1  0
  6  5  1  0
 11 12  1  0
 12 13  2  0
 13 14  1  0
 14 15  2  0
 15 16  1  0
 16 11  2  0
M  END

$$$$
