No_2137-gen_results/8p0m/2024-11-27-11-27-31/
     RDKit          3D

 24 26  0  0  0  0  0  0  0  0999 V2000
  -28.0162   -0.8135   28.8779 C   0  0  0  0  0  0  0  0  0  0  0  0
  -28.4690   -0.7850   29.8287 C   0  0  0  0  0  0  0  0  0  0  0  0
  -27.1356    0.2359   28.5352 C   0  0  0  0  0  0  0  0  0  0  0  0
  -26.8745    1.2825   29.3982 C   0  0  0  0  0  0  0  0  0  0  0  0
  -25.9742    2.3797   29.0831 C   0  0  0  0  0  0  0  0  0  0  0  0
  -28.3915    0.1302   30.9603 C   0  0  0  0  0  0  0  0  0  0  0  0
  -27.5035    1.2424   30.6700 C   0  0  0  0  0  0  0  0  0  0  0  0
  -25.4362    3.0409   29.8294 C   0  0  0  0  0  0  0  0  0  0  0  0
  -25.8122    2.6674   27.6414 C   0  0  0  0  0  0  0  0  0  0  0  0
  -24.8666    3.6911   27.2661 C   0  0  0  0  0  0  0  0  0  0  0  0
  -24.5428    4.2436   29.5513 C   0  0  0  0  0  0  0  0  0  0  0  0
  -24.3408    4.4893   28.2096 N   0  0  0  0  0  0  0  0  0  0  0  0
  -26.3328    0.1928   26.9765 Cl  0  0  0  0  0  0  0  0  0  0  0  0
  -29.4183   -2.0361   30.2795 C   0  0  0  0  0  0  0  0  0  0  0  0
  -29.7952   -2.0622   31.5206 O   0  0  0  0  0  0  0  0  0  0  0  0
  -29.5500   -2.9797   29.5626 O   0  0  0  0  0  0  0  0  0  0  0  0
  -24.6355    4.0162   26.0491 O   0  0  0  0  0  0  0  0  0  0  0  0
  -30.9288   -2.8076   31.8160 C   0  0  0  0  0  0  0  0  0  0  0  0
  -31.9598   -2.6605   31.3299 C   0  0  0  0  0  0  0  0  0  0  0  0
  -32.9467   -3.5367   31.4320 C   0  0  0  0  0  0  0  0  0  0  0  0
  -34.1562   -3.4296   30.6773 C   0  0  0  0  0  0  0  0  0  0  0  0
  -34.2763   -2.3531   29.7706 C   0  0  0  0  0  0  0  0  0  0  0  0
  -33.2296   -1.4753   29.5799 C   0  0  0  0  0  0  0  0  0  0  0  0
  -32.1135   -1.6090   30.2925 C   0  0  0  0  0  0  0  0  0  0  0  0
  4  5  1  0
  5  9  1  0
  9 10  1  0
  8 11  1  0
 10 12  1  0
  3 13  1  0
  2 14  1  0
 14 15  1  0
 14 16  2  0
 10 17  2  0
 15 18  1  0
 18 19  1  0
  5  8  1  0
 11 12  1  0
  1  2  2  0
  2  6  1  0
  6  7  2  0
  7  4  1  0
  4  3  2  0
  3  1  1  0
 19 20  2  0
 20 21  1  0
 21 22  2  0
 22 23  1  0
 23 24  2  0
 24 19  1  0
M  END

$$$$
