No_223-gen_results/8p0m/2024-11-27-11-27-31/
     RDKit          3D

 13 13  0  0  0  0  0  0  0  0999 V2000
  -28.1493   -0.8198   28.9079 Cl  0  0  0  0  0  0  0  0  0  0  0  0
  -28.5324   -0.0471   29.7727 C   0  0  0  0  0  0  0  0  0  0  0  0
  -27.6515    0.7172   30.3086 F   0  0  0  0  0  0  0  0  0  0  0  0
  -29.6789    0.8470   29.3357 C   0  0  0  0  0  0  0  0  0  0  0  0
  -28.9713   -0.6705   31.0034 F   0  0  0  0  0  0  0  0  0  0  0  0
  -30.2880    0.7366   28.4874 O   0  0  0  0  0  0  0  0  0  0  0  0
  -29.5174    2.1982   29.6912 N   0  0  0  0  0  0  0  0  0  0  0  0
  -30.2859    3.2182   29.2063 C   0  0  0  0  0  0  0  0  0  0  0  0
  -31.3414    3.5864   29.8101 C   0  0  0  0  0  0  0  0  0  0  0  0
  -32.2054    4.5406   29.2607 C   0  0  0  0  0  0  0  0  0  0  0  0
  -31.8164    5.1759   28.0137 C   0  0  0  0  0  0  0  0  0  0  0  0
  -30.6665    4.7556   27.3422 C   0  0  0  0  0  0  0  0  0  0  0  0
  -29.8323    3.7673   27.9246 C   0  0  0  0  0  0  0  0  0  0  0  0
  1  2  1  0
  2  3  1  0
  2  4  1  0
  2  5  1  0
  4  6  1  0
  4  7  2  3
  7  8  1  0
  8  9  2  0
  9 10  1  0
 10 11  2  0
 11 12  1  0
 12 13  2  0
 13  8  1  0
M  END

$$$$
