No_2767-gen_results/8p0m/2024-11-27-11-27-31/
     RDKit          3D

  4  3  0  0  0  0  0  0  0  0999 V2000
  -28.1229   -1.3353   28.4874 O   0  0  0  0  0  0  0  0  0  0  0  0
  -27.0637   -0.8242   28.8687 C   0  0  0  0  0  0  0  0  0  0  0  0
  -26.7173   -0.4898   29.7587 Cl  0  0  0  0  0  0  0  0  0  0  0  0
  -26.1642   -0.8965   27.7071 F   0  0  0  0  0  0  0  0  0  0  0  0
  1  2  2  0
  2  3  1  0
  2  4  1  0
M  END

$$$$
