No_3876-gen_results/8p0m/2024-11-27-11-27-31/
     RDKit          3D

 17 18  0  0  0  0  0  0  0  0999 V2000
  -28.0162   -0.8135   28.8779 C   0  0  0  0  0  0  0  0  0  0  0  0
  -28.4690   -0.7850   29.8287 C   0  0  0  0  0  0  0  0  0  0  0  0
  -26.5042   -0.7777   28.8766 C   0  0  0  0  0  0  0  0  0  0  0  0
  -25.8103   -0.8531   30.1028 C   0  0  0  0  0  0  0  0  0  0  0  0
  -27.9906   -0.8916   31.2257 C   0  0  0  0  0  0  0  0  0  0  0  0
  -26.6042   -0.8676   31.2652 C   0  0  0  0  0  0  0  0  0  0  0  0
  -24.4436   -0.6734   29.9745 C   0  0  0  0  0  0  0  0  0  0  0  0
  -23.6862   -1.4455   30.5677 C   0  0  0  0  0  0  0  0  0  0  0  0
  -23.8487    0.4202   29.2804 C   0  0  0  0  0  0  0  0  0  0  0  0
  -22.4571    0.4862   29.0869 C   0  0  0  0  0  0  0  0  0  0  0  0
  -22.1951   -1.4139   30.5510 C   0  0  0  0  0  0  0  0  0  0  0  0
  -21.6338   -0.4231   29.7682 C   0  0  0  0  0  0  0  0  0  0  0  0
  -30.0951   -0.8217   29.8558 C   0  0  0  0  0  0  0  0  0  0  0  0
  -30.5076   -0.3484   28.9064 O   0  0  0  0  0  0  0  0  0  0  0  0
  -30.7710   -1.7063   30.6670 N   0  0  0  0  0  0  0  0  0  0  0  0
  -32.1915   -1.8153   30.5286 C   0  0  0  0  0  0  0  0  0  0  0  0
  -32.9494   -1.1595   30.1959 C   0  0  0  0  0  0  0  0  0  0  0  0
  4  7  1  0
  2 13  1  0
 13 14  2  0
 13 15  1  0
 15 16  1  0
 16 17  3  0
  7  8  2  0
  8 11  1  0
 11 12  2  0
 12 10  1  0
 10  9  2  0
  9  7  1  0
  1  2  2  0
  2  5  1  0
  5  6  2  0
  6  4  1  0
  4  3  2  0
  3  1  1  0
M  END

$$$$
