No_361-gen_results/8p0m/2024-11-27-11-27-31/
     RDKit          3D

 31 35  0  0  0  0  0  0  0  0999 V2000
  -28.0162   -0.8135   28.8779 C   0  0  0  0  0  0  0  0  0  0  0  0
  -28.4690   -0.7850   29.8287 C   0  0  0  0  0  0  0  0  0  0  0  0
  -28.1816    0.4277   28.1134 C   0  0  0  0  0  0  0  0  0  0  0  0
  -28.9841    1.4155   28.5154 C   0  0  0  0  0  0  0  0  0  0  0  0
  -29.3802    0.1384   30.4612 C   0  0  0  0  0  0  0  0  0  0  0  0
  -29.9932   -0.0234   31.7370 C   0  0  0  0  0  0  0  0  0  0  0  0
  -29.5370    1.2619   29.7119 C   0  0  0  0  0  0  0  0  0  0  0  0
  -27.4269    0.4618   26.7350 C   0  0  0  0  0  0  0  0  0  0  0  0
  -27.8945    0.6965   25.7576 N   0  0  0  0  0  0  0  0  0  0  0  0
  -26.0506    0.2079   26.7626 N   0  0  0  0  0  0  0  0  0  0  0  0
  -25.1632    0.0191   27.7833 C   0  0  0  0  0  0  0  0  0  0  0  0
  -24.7465    1.1769   28.4866 C   0  0  0  0  0  0  0  0  0  0  0  0
  -23.8013    1.0001   29.5326 C   0  0  0  0  0  0  0  0  0  0  0  0
  -23.3549   -0.2341   29.9231 C   0  0  0  0  0  0  0  0  0  0  0  0
  -24.6279   -1.2180   28.1523 C   0  0  0  0  0  0  0  0  0  0  0  0
  -23.6993   -1.3326   29.2225 C   0  0  0  0  0  0  0  0  0  0  0  0
  -25.6250    0.3714   25.4394 C   0  0  0  0  0  0  0  0  0  0  0  0
  -26.8498    0.6303   24.7834 C   0  0  0  0  0  0  0  0  0  0  0  0
  -25.2378    2.5543   28.2590 C   0  0  0  0  0  0  0  0  0  0  0  0
  -26.0000    3.2236   29.1231 N   0  0  0  0  0  0  0  0  0  0  0  0
  -25.0698    3.1543   26.9432 C   0  0  0  0  0  0  0  0  0  0  0  0
  -26.4447    4.4518   28.8616 C   0  0  0  0  0  0  0  0  0  0  0  0
  -25.4292    4.4872   26.7076 C   0  0  0  0  0  0  0  0  0  0  0  0
  -27.2080    5.1677   29.8170 N   0  0  0  0  0  0  0  0  0  0  0  0
  -26.1823    5.1305   27.6828 C   0  0  0  0  0  0  0  0  0  0  0  0
  -27.1509    4.8010   31.1057 C   0  0  0  0  0  0  0  0  0  0  0  0
  -28.0558    5.4687   32.0177 C   0  0  0  0  0  0  0  0  0  0  0  0
  -27.9878    6.1965   29.4794 C   0  0  0  0  0  0  0  0  0  0  0  0
  -28.3168    6.5416   28.4456 C   0  0  0  0  0  0  0  0  0  0  0  0
  -29.1960    7.6284   28.0407 C   0  0  0  0  0  0  0  0  0  0  0  0
  -28.7882    6.5951   30.7297 C   0  0  0  0  0  0  0  0  0  0  0  0
  5  6  1  0
  3  8  1  0
  8  9  2  0
  8 10  1  0
 10 11  1  0
 10 17  1  0
  9 18  1  0
 17 18  2  0
 12 19  1  0
 22 24  1  0
 24 26  1  0
 26 27  2  0
 24 28  1  0
 28 29  1  0
 29 30  2  0
 27 31  1  0
 28 31  1  0
 19 20  2  0
 20 22  1  0
 22 25  2  0
 25 23  1  0
 23 21  2  0
 21 19  1  0
 11 12  1  0
 12 13  2  0
 13 14  1  0
 14 16  2  0
 16 15  1  0
 15 11  2  0
  1  2  2  0
  2  5  1  0
  5  7  2  0
  7  4  1  0
  4  3  2  0
  3  1  1  0
M  END

$$$$
