No_39-gen_results/8p0m/2024-11-27-11-27-31/
     RDKit          3D

 16 17  0  0  0  0  0  0  0  0999 V2000
  -28.0162   -0.8135   28.8779 C   0  0  0  0  0  0  0  0  0  0  0  0
  -27.0636   -0.1189   28.6079 C   0  0  0  0  0  0  0  0  0  0  0  0
  -27.0010    0.6913   27.4910 C   0  0  0  0  0  0  0  0  0  0  0  0
  -28.1373    0.7363   26.6350 C   0  0  0  0  0  0  0  0  0  0  0  0
  -29.2360    0.0765   27.0690 C   0  0  0  0  0  0  0  0  0  0  0  0
  -30.3815    0.2048   26.2662 C   0  0  0  0  0  0  0  0  0  0  0  0
  -29.1803   -0.6422   28.1830 C   0  0  0  0  0  0  0  0  0  0  0  0
  -30.4107   -0.0071   25.0540 O   0  0  0  0  0  0  0  0  0  0  0  0
  -31.5922   -0.0313   26.9144 O   0  0  0  0  0  0  0  0  0  0  0  0
  -25.6884   -0.2025   29.4108 C   0  0  0  0  0  0  0  0  0  0  0  0
  -25.3326   -0.9020   30.0369 C   0  0  0  0  0  0  0  0  0  0  0  0
  -24.1700   -1.0489   30.5771 C   0  0  0  0  0  0  0  0  0  0  0  0
  -23.1255   -0.0619   30.3955 C   0  0  0  0  0  0  0  0  0  0  0  0
  -23.5279    0.9509   29.5079 C   0  0  0  0  0  0  0  0  0  0  0  0
  -24.8268    0.9576   28.9182 C   0  0  0  0  0  0  0  0  0  0  0  0
  -22.6260    1.9007   29.2085 O   0  0  0  0  0  0  0  0  0  0  0  0
  5  6  1  0
  6  8  2  0
  6  9  1  0
  2 10  1  0
 14 16  1  0
  1  2  2  0
  2  3  1  0
  3  4  2  0
  4  5  1  0
  5  7  2  0
  7  1  1  0
 10 11  2  0
 11 12  1  0
 12 13  2  0
 13 14  1  0
 14 15  2  0
 15 10  1  0
M  END

$$$$
