No_3560-gen_results/8p0m/2024-11-27-11-27-31/
     RDKit          3D

 22 23  0  0  0  0  0  0  0  0999 V2000
  -28.0162   -0.8135   28.8779 C   0  0  0  0  0  0  0  0  0  0  0  0
  -28.4690   -0.7850   29.8287 C   0  0  0  0  0  0  0  0  0  0  0  0
  -27.1356    0.2359   28.5352 C   0  0  0  0  0  0  0  0  0  0  0  0
  -26.8745    1.2825   29.3982 C   0  0  0  0  0  0  0  0  0  0  0  0
  -28.3613    0.1987   30.9244 C   0  0  0  0  0  0  0  0  0  0  0  0
  -27.5277    1.2234   30.6356 C   0  0  0  0  0  0  0  0  0  0  0  0
  -26.2960    0.2786   27.0255 Cl  0  0  0  0  0  0  0  0  0  0  0  0
  -29.4224   -1.9755   30.3198 C   0  0  0  0  0  0  0  0  0  0  0  0
  -30.4673   -1.8497   30.0493 N   0  0  0  0  0  0  0  0  0  0  0  0
  -28.8660   -3.0096   30.8802 O   0  0  0  0  0  0  0  0  0  0  0  0
  -31.1543   -0.7661   29.5671 C   0  0  0  0  0  0  0  0  0  0  0  0
  -31.8241   -0.0703   30.3084 C   0  0  0  0  0  0  0  0  0  0  0  0
  -32.6069    1.0984   29.8285 C   0  0  0  0  0  0  0  0  0  0  0  0
  -32.5990    1.3305   28.4602 C   0  0  0  0  0  0  0  0  0  0  0  0
  -31.1372   -0.4942   28.1091 C   0  0  0  0  0  0  0  0  0  0  0  0
  -31.8104    0.5689   27.6118 C   0  0  0  0  0  0  0  0  0  0  0  0
  -31.4552   -3.0056   30.2187 C   0  0  0  0  0  0  0  0  0  0  0  0
  -32.5265   -3.1860   29.9203 C   0  0  0  0  0  0  0  0  0  0  0  0
  -33.2933   -2.1556   29.1959 C   0  0  0  0  0  0  0  0  0  0  0  0
  -34.6918   -2.4741   28.7726 C   0  0  0  0  0  0  0  0  0  0  0  0
  -34.9808   -2.8983   27.8740 C   0  0  0  0  0  0  0  0  0  0  0  0
  -36.4168   -3.2218   27.5052 C   0  0  0  0  0  0  0  0  0  0  0  0
  3  7  1  0
  2  8  1  0
  8  9  1  0
  8 10  2  0
  9 11  1  0
  9 17  1  0
 17 18  2  3
 18 19  1  0
 19 20  1  0
 20 21  2  3
 21 22  1  0
 11 12  2  0
 12 13  1  0
 13 14  2  0
 14 16  1  0
 16 15  2  0
 15 11  1  0
  1  2  2  0
  2  5  1  0
  5  6  2  0
  6  4  1  0
  4  3  2  0
  3  1  1  0
M  END

$$$$
