No_3060-gen_results/8p0m/2024-11-27-11-27-31/
     RDKit          3D

 11 10  0  0  0  0  0  0  0  0999 V2000
  -28.1229   -1.3353   28.4874 O   0  0  0  0  0  0  0  0  0  0  0  0
  -28.5208   -0.4363   29.0779 C   0  0  0  0  0  0  0  0  0  0  0  0
  -29.6180    0.0238   29.0240 N   0  0  0  0  0  0  0  0  0  0  0  0
  -27.4467    0.2645   30.0356 C   0  0  0  0  0  0  0  0  0  0  0  0
  -27.7606    0.6089   31.0621 C   0  0  0  0  0  0  0  0  0  0  0  0
  -30.5763   -0.4341   28.2451 C   0  0  0  0  0  0  0  0  0  0  0  0
  -26.0740    0.2721   29.4896 C   0  0  0  0  0  0  0  0  0  0  0  0
  -25.6318    0.3543   28.4301 C   0  0  0  0  0  0  0  0  0  0  0  0
  -24.2253    0.4370   28.1208 C   0  0  0  0  0  0  0  0  0  0  0  0
  -23.3172    0.3229   29.1890 C   0  0  0  0  0  0  0  0  0  0  0  0
  -23.7933    0.1355   30.4275 C   0  0  0  0  0  0  0  0  0  0  0  0
  1  2  2  0
  2  3  1  0
  2  4  1  0
  4  5  1  0
  3  6  1  0
  4  7  1  0
  7  8  2  3
  8  9  1  0
  9 10  2  3
 10 11  1  0
M  END

$$$$
