No_3542-gen_results/8p0m/2024-11-27-11-27-31/
     RDKit          3D

 15 16  0  0  0  0  0  0  0  0999 V2000
  -28.0162   -0.8135   28.8779 C   0  0  0  0  0  0  0  0  0  0  0  0
  -28.4690   -0.7850   29.8287 C   0  0  0  0  0  0  0  0  0  0  0  0
  -26.5455   -0.8762   28.8500 C   0  0  0  0  0  0  0  0  0  0  0  0
  -25.8041   -1.0324   30.0571 C   0  0  0  0  0  0  0  0  0  0  0  0
  -26.5373   -1.0386   31.2171 C   0  0  0  0  0  0  0  0  0  0  0  0
  -27.8843   -0.9532   31.1862 C   0  0  0  0  0  0  0  0  0  0  0  0
  -24.4101   -0.9712   29.8639 C   0  0  0  0  0  0  0  0  0  0  0  0
  -23.6516   -1.6248   30.4524 C   0  0  0  0  0  0  0  0  0  0  0  0
  -23.8639   -0.0759   28.8690 C   0  0  0  0  0  0  0  0  0  0  0  0
  -22.4131    0.0597   28.8178 C   0  0  0  0  0  0  0  0  0  0  0  0
  -22.1855   -1.5143   30.5146 C   0  0  0  0  0  0  0  0  0  0  0  0
  -21.6411   -0.6816   29.5939 C   0  0  0  0  0  0  0  0  0  0  0  0
  -21.8725    1.0635   27.8689 C   0  0  0  0  0  0  0  0  0  0  0  0
  -20.8471    1.8397   28.2677 N   0  0  0  0  0  0  0  0  0  0  0  0
  -22.5307    1.4583   26.7847 N   0  0  0  0  0  0  0  0  0  0  0  0
  4  7  1  0
 10 13  1  0
 13 14  2  0
 13 15  1  0
  1  2  2  0
  2  6  1  0
  6  5  2  0
  5  4  1  0
  4  3  2  0
  3  1  1  0
  7  8  2  0
  8 11  1  0
 11 12  2  0
 12 10  1  0
 10  9  2  0
  9  7  1  0
M  END

$$$$
