No_3205-gen_results/8p0m/2024-11-27-11-27-31/
     RDKit          3D

 23 25  0  0  0  0  0  0  0  0999 V2000
  -28.1493   -0.8198   28.9079 Cl  0  0  0  0  0  0  0  0  0  0  0  0
  -26.9116   -0.0797   28.9452 C   0  0  0  0  0  0  0  0  0  0  0  0
  -26.0490   -0.0718   27.8591 C   0  0  0  0  0  0  0  0  0  0  0  0
  -24.7194    0.4034   27.9174 C   0  0  0  0  0  0  0  0  0  0  0  0
  -24.2099    0.9302   29.0839 C   0  0  0  0  0  0  0  0  0  0  0  0
  -25.0231    0.9078   30.1875 C   0  0  0  0  0  0  0  0  0  0  0  0
  -26.2532    0.3904   30.1401 C   0  0  0  0  0  0  0  0  0  0  0  0
  -22.8477    1.4431   29.0581 C   0  0  0  0  0  0  0  0  0  0  0  0
  -21.9192    1.2697   28.5770 O   0  0  0  0  0  0  0  0  0  0  0  0
  -22.8333    2.5116   30.0473 O   0  0  0  0  0  0  0  0  0  0  0  0
  -27.0757    0.3319   31.4289 C   0  0  0  0  0  0  0  0  0  0  0  0
  -26.5972   -0.4154   32.3155 C   0  0  0  0  0  0  0  0  0  0  0  0
  -26.2519    0.0534   33.3744 C   0  0  0  0  0  0  0  0  0  0  0  0
  -25.5805   -0.7352   34.4965 C   0  0  0  0  0  0  0  0  0  0  0  0
  -26.4056    1.4519   33.7943 C   0  0  0  0  0  0  0  0  0  0  0  0
  -26.4465    2.3744   32.8846 C   0  0  0  0  0  0  0  0  0  0  0  0
  -27.2546    1.8392   31.6592 C   0  0  0  0  0  0  0  0  0  0  0  0
  -27.9071    2.7762   30.8235 C   0  0  0  0  0  0  0  0  0  0  0  0
  -27.2742    3.7680   30.1486 C   0  0  0  0  0  0  0  0  0  0  0  0
  -29.2857    2.7951   30.9918 C   0  0  0  0  0  0  0  0  0  0  0  0
  -27.9407    4.5939   29.2407 C   0  0  0  0  0  0  0  0  0  0  0  0
  -30.0231    3.6707   30.0834 C   0  0  0  0  0  0  0  0  0  0  0  0
  -29.3549    4.5870   29.2982 C   0  0  0  0  0  0  0  0  0  0  0  0
  1  2  1  0
  5  8  1  0
  8  9  2  0
  8 10  1  0
  7 11  1  0
 13 14  1  0
 17 18  1  0
  2  3  2  0
  3  4  1  0
  4  5  2  0
  5  6  1  0
  6  7  2  0
  7  2  1  0
 18 19  2  0
 19 21  1  0
 21 23  2  0
 23 22  1  0
 22 20  2  0
 20 18  1  0
 11 12  2  0
 12 13  1  0
 13 15  2  0
 15 16  1  0
 16 17  2  0
 17 11  1  0
M  END

$$$$
