No_3290-gen_results/8p0m/2024-11-27-11-27-31/
     RDKit          3D

 16 17  0  0  0  0  0  0  0  0999 V2000
  -28.1493   -0.8198   28.9079 Cl  0  0  0  0  0  0  0  0  0  0  0  0
  -26.9116   -0.0797   28.9452 C   0  0  0  0  0  0  0  0  0  0  0  0
  -26.0490   -0.0718   27.8591 C   0  0  0  0  0  0  0  0  0  0  0  0
  -24.7194    0.4034   27.9174 C   0  0  0  0  0  0  0  0  0  0  0  0
  -24.2099    0.9302   29.0839 C   0  0  0  0  0  0  0  0  0  0  0  0
  -25.0231    0.9078   30.1875 C   0  0  0  0  0  0  0  0  0  0  0  0
  -26.2531    0.3904   30.1401 C   0  0  0  0  0  0  0  0  0  0  0  0
  -22.8500    1.4478   29.0593 C   0  0  0  0  0  0  0  0  0  0  0  0
  -22.0944    1.5228   27.9761 N   0  0  0  0  0  0  0  0  0  0  0  0
  -22.3433    1.8238   30.1598 O   0  0  0  0  0  0  0  0  0  0  0  0
  -27.0794    0.3502   31.4295 C   0  0  0  0  0  0  0  0  0  0  0  0
  -28.3436    0.8041   31.4818 C   0  0  0  0  0  0  0  0  0  0  0  0
  -29.0613    0.6325   32.6189 C   0  0  0  0  0  0  0  0  0  0  0  0
  -28.3891    0.2847   33.8531 C   0  0  0  0  0  0  0  0  0  0  0  0
  -27.0605   -0.1165   33.8322 C   0  0  0  0  0  0  0  0  0  0  0  0
  -26.3736   -0.1048   32.6230 C   0  0  0  0  0  0  0  0  0  0  0  0
  1  2  1  0
  5  8  1  0
  8  9  1  0
  8 10  2  0
  7 11  1  0
 11 12  2  0
 12 13  1  0
 13 14  2  0
 14 15  1  0
 15 16  2  0
 16 11  1  0
  2  3  2  0
  3  4  1  0
  4  5  2  0
  5  6  1  0
  6  7  2  0
  7  2  1  0
M  END

$$$$
