No_30-gen_results/8p0m/2024-11-27-11-27-31/
     RDKit          3D

 20 20  0  0  0  0  0  0  0  0999 V2000
  -28.0162   -0.8135   28.8779 C   0  0  0  0  0  0  0  0  0  0  0  0
  -28.4690   -0.7850   29.8287 C   0  0  0  0  0  0  0  0  0  0  0  0
  -27.1356    0.2359   28.5352 C   0  0  0  0  0  0  0  0  0  0  0  0
  -26.8745    1.2825   29.3982 C   0  0  0  0  0  0  0  0  0  0  0  0
  -28.3613    0.1987   30.9244 C   0  0  0  0  0  0  0  0  0  0  0  0
  -27.5277    1.2234   30.6356 C   0  0  0  0  0  0  0  0  0  0  0  0
  -26.3503    0.5073   27.2580 C   0  0  0  0  0  0  0  0  0  0  0  0
  -26.6574   -0.1432   26.4194 F   0  0  0  0  0  0  0  0  0  0  0  0
  -25.0457    0.4122   27.5594 F   0  0  0  0  0  0  0  0  0  0  0  0
  -26.4608    1.8311   26.8151 F   0  0  0  0  0  0  0  0  0  0  0  0
  -29.3001   -1.8851   30.2480 F   0  0  0  0  0  0  0  0  0  0  0  0
  -27.2952    2.3557   31.6032 C   0  0  0  0  0  0  0  0  0  0  0  0
  -26.8261    3.4321   31.4035 C   0  0  0  0  0  0  0  0  0  0  0  0
  -26.5465    4.4827   32.3690 C   0  0  0  0  0  0  0  0  0  0  0  0
  -25.8419    5.7101   32.0803 C   0  0  0  0  0  0  0  0  0  0  0  0
  -25.5662    5.9572   31.0035 C   0  0  0  0  0  0  0  0  0  0  0  0
  -24.8942    7.1819   30.5774 C   0  0  0  0  0  0  0  0  0  0  0  0
  -24.5672    7.5242   29.2586 C   0  0  0  0  0  0  0  0  0  0  0  0
  -24.9635    6.5615   28.2197 C   0  0  0  0  0  0  0  0  0  0  0  0
  -25.5787    5.3922   28.6192 C   0  0  0  0  0  0  0  0  0  0  0  0
  3  7  1  0
  7  8  1  0
  7  9  1  0
  7 10  1  0
  2 11  1  0
  6 12  1  0
 12 13  2  3
 13 14  1  0
 14 15  2  3
 15 16  1  0
 16 17  2  3
 17 18  1  0
 18 19  2  3
 19 20  1  0
  1  2  2  0
  2  5  1  0
  5  6  2  0
  6  4  1  0
  4  3  2  0
  3  1  1  0
M  END

$$$$
