No_3739-gen_results/8p0m/2024-11-27-11-27-31/
     RDKit          3D

 27 29  0  0  0  0  0  0  0  0999 V2000
  -28.0162   -0.8135   28.8779 C   0  0  0  0  0  0  0  0  0  0  0  0
  -28.4690   -0.7850   29.8287 C   0  0  0  0  0  0  0  0  0  0  0  0
  -27.0871    0.2903   28.6377 C   0  0  0  0  0  0  0  0  0  0  0  0
  -26.8317    1.2487   29.5869 C   0  0  0  0  0  0  0  0  0  0  0  0
  -28.3914    0.0801   31.0065 C   0  0  0  0  0  0  0  0  0  0  0  0
  -27.4940    1.1521   30.7841 C   0  0  0  0  0  0  0  0  0  0  0  0
  -26.3172    0.3994   27.3653 C   0  0  0  0  0  0  0  0  0  0  0  0
  -24.9405    0.2550   27.5028 C   0  0  0  0  0  0  0  0  0  0  0  0
  -26.9129    0.5860   26.1397 C   0  0  0  0  0  0  0  0  0  0  0  0
  -28.2688    0.7168   25.9850 C   0  0  0  0  0  0  0  0  0  0  0  0
  -28.7657    0.7315   24.6860 C   0  0  0  0  0  0  0  0  0  0  0  0
  -30.1595    0.8701   24.4627 C   0  0  0  0  0  0  0  0  0  0  0  0
  -30.9938    0.9584   25.5406 C   0  0  0  0  0  0  0  0  0  0  0  0
  -30.5076    0.9507   26.8390 C   0  0  0  0  0  0  0  0  0  0  0  0
  -29.1995    0.8714   27.0780 C   0  0  0  0  0  0  0  0  0  0  0  0
  -26.0349    0.6779   25.0155 C   0  0  0  0  0  0  0  0  0  0  0  0
  -24.0803    1.2786   27.2140 C   0  0  0  0  0  0  0  0  0  0  0  0
  -23.9405    1.7296   25.8033 C   0  0  0  0  0  0  0  0  0  0  0  0
  -24.6710    1.4122   24.8824 C   0  0  0  0  0  0  0  0  0  0  0  0
  -31.5383    1.1329   27.9374 C   0  0  0  0  0  0  0  0  0  0  0  0
  -32.4862    1.6585   27.7538 O   0  0  0  0  0  0  0  0  0  0  0  0
  -31.0265    1.0371   29.1951 O   0  0  0  0  0  0  0  0  0  0  0  0
  -22.9088    1.5555   28.1359 C   0  0  0  0  0  0  0  0  0  0  0  0
  -21.7917    1.8985   27.6180 N   0  0  0  0  0  0  0  0  0  0  0  0
  -23.1860    1.5101   29.3433 F   0  0  0  0  0  0  0  0  0  0  0  0
  -22.0086    0.9241   28.0703 Br  0  0  0  0  0  0  0  0  0  0  0  0
  -21.0384    2.3710   26.8324 C   0  0  0  0  0  0  0  0  0  0  0  0
  3  7  1  0
  7  8  1  0
  7  9  1  0
  9 10  1  0
  9 16  1  0
  8 17  2  0
 17 18  1  0
 16 19  2  0
 18 19  2  0
 14 20  1  0
 20 21  2  0
 20 22  1  0
 17 23  1  0
 23 24  1  0
 23 25  1  0
 23 26  1  0
 24 27  2  0
  1  2  2  0
  2  5  1  0
  5  6  2  0
  6  4  1  0
  4  3  2  0
  3  1  1  0
 10 11  2  0
 11 12  1  0
 12 13  2  0
 13 14  1  0
 14 15  2  0
 15 10  1  0
M  END

$$$$
