No_3395-gen_results/8p0m/2024-11-27-11-27-31/
     RDKit          3D

 21 23  0  0  0  0  0  0  0  0999 V2000
  -28.0162   -0.8135   28.8779 C   0  0  0  0  0  0  0  0  0  0  0  0
  -27.0636   -0.1189   28.6079 C   0  0  0  0  0  0  0  0  0  0  0  0
  -25.7923   -0.4302   29.0761 C   0  0  0  0  0  0  0  0  0  0  0  0
  -25.5756   -1.5654   29.9363 C   0  0  0  0  0  0  0  0  0  0  0  0
  -26.7354   -2.3004   30.2173 C   0  0  0  0  0  0  0  0  0  0  0  0
  -27.9184   -1.9537   29.7629 C   0  0  0  0  0  0  0  0  0  0  0  0
  -27.1057    1.1023   27.7593 C   0  0  0  0  0  0  0  0  0  0  0  0
  -27.8576    1.5309   27.2156 C   0  0  0  0  0  0  0  0  0  0  0  0
  -29.2421    0.8816   27.2919 C   0  0  0  0  0  0  0  0  0  0  0  0
  -29.5768   -0.0587   28.1159 C   0  0  0  0  0  0  0  0  0  0  0  0
  -30.4244    1.4745   26.5881 C   0  0  0  0  0  0  0  0  0  0  0  0
  -31.5292    1.1325   26.8929 C   0  0  0  0  0  0  0  0  0  0  0  0
  -32.6536    1.6608   26.2675 C   0  0  0  0  0  0  0  0  0  0  0  0
  -32.4076    2.6333   25.2083 C   0  0  0  0  0  0  0  0  0  0  0  0
  -31.1455    3.0039   24.8472 C   0  0  0  0  0  0  0  0  0  0  0  0
  -30.0796    2.4901   25.5545 C   0  0  0  0  0  0  0  0  0  0  0  0
  -29.0538   -2.6371   30.0648 O   0  0  0  0  0  0  0  0  0  0  0  0
  -29.2799   -2.7909   31.4825 C   0  0  0  0  0  0  0  0  0  0  0  0
  -30.6486   -2.6197   31.8191 C   0  0  0  0  0  0  0  0  0  0  0  0
  -30.9583   -2.6521   32.8852 O   0  0  0  0  0  0  0  0  0  0  0  0
  -31.4650   -2.4711   30.8189 O   0  0  0  0  0  0  0  0  0  0  0  0
  9 11  1  0
  6 17  1  0
 17 18  1  0
 18 19  1  0
 19 20  2  0
 19 21  1  0
  2  7  1  0
  7  8  2  0
  8  9  1  0
  9 10  2  0
 10  1  1  0
  1  2  1  0
  2  3  2  0
  3  4  1  0
  4  5  2  0
  5  6  1  0
  6  1  2  0
 11 12  2  0
 12 13  1  0
 13 14  2  0
 14 15  1  0
 15 16  2  0
 16 11  1  0
M  END

$$$$
