No_3334-gen_results/8p0m/2024-11-27-11-27-31/
     RDKit          3D

 27 29  0  0  0  0  0  0  0  0999 V2000
  -28.0162   -0.8135   28.8779 C   0  0  0  0  0  0  0  0  0  0  0  0
  -28.4690   -0.7850   29.8287 C   0  0  0  0  0  0  0  0  0  0  0  0
  -26.5455   -0.8762   28.8500 C   0  0  0  0  0  0  0  0  0  0  0  0
  -25.8041   -1.0324   30.0571 C   0  0  0  0  0  0  0  0  0  0  0  0
  -27.9437   -0.9869   31.2075 C   0  0  0  0  0  0  0  0  0  0  0  0
  -26.5825   -1.0386   31.2231 C   0  0  0  0  0  0  0  0  0  0  0  0
  -30.0279   -0.6588   29.6965 C   0  0  0  0  0  0  0  0  0  0  0  0
  -30.7180    0.0750   28.7082 Cl  0  0  0  0  0  0  0  0  0  0  0  0
  -30.7071   -2.0331   30.1258 C   0  0  0  0  0  0  0  0  0  0  0  0
  -31.4790   -2.4878   29.5090 O   0  0  0  0  0  0  0  0  0  0  0  0
  -30.2948   -2.5408   31.2869 O   0  0  0  0  0  0  0  0  0  0  0  0
  -25.7943   -0.8425   27.7452 F   0  0  0  0  0  0  0  0  0  0  0  0
  -24.5257   -1.0542   30.0790 F   0  0  0  0  0  0  0  0  0  0  0  0
  -30.8712   -2.5072   32.2929 C   0  0  0  0  0  0  0  0  0  0  0  0
  -30.9716   -1.5695   33.0318 C   0  0  0  0  0  0  0  0  0  0  0  0
  -31.7794   -1.5758   34.2770 C   0  0  0  0  0  0  0  0  0  0  0  0
  -32.2996   -2.8378   34.6114 C   0  0  0  0  0  0  0  0  0  0  0  0
  -31.4077   -3.8263   32.6381 C   0  0  0  0  0  0  0  0  0  0  0  0
  -32.1125   -3.9346   33.8359 C   0  0  0  0  0  0  0  0  0  0  0  0
  -33.1619   -2.9534   36.1168 Cl  0  0  0  0  0  0  0  0  0  0  0  0
  -31.9033   -0.5343   35.0300 F   0  0  0  0  0  0  0  0  0  0  0  0
  -31.0743   -5.0639   32.0492 C   0  0  0  0  0  0  0  0  0  0  0  0
  -29.8541   -5.6362   32.3378 C   0  0  0  0  0  0  0  0  0  0  0  0
  -29.1200   -6.3454   31.4642 C   0  0  0  0  0  0  0  0  0  0  0  0
  -31.9124   -5.5936   31.1385 C   0  0  0  0  0  0  0  0  0  0  0  0
  -31.3140   -6.5284   30.2114 C   0  0  0  0  0  0  0  0  0  0  0  0
  -29.9529   -6.9743   30.4792 C   0  0  0  0  0  0  0  0  0  0  0  0
  2  7  1  0
  7  8  1  0
  7  9  1  0
  9 10  2  0
  9 11  1  0
  3 12  1  0
  4 13  1  0
 11 14  1  0
 17 20  1  0
 16 21  1  0
 18 22  1  0
 14 15  2  0
 15 16  1  0
 16 17  2  0
 17 19  1  0
 19 18  2  0
 18 14  1  0
  1  2  2  0
  2  5  1  0
  5  6  2  0
  6  4  1  0
  4  3  2  0
  3  1  1  0
 22 23  2  0
 23 24  1  0
 24 27  2  0
 27 26  1  0
 26 25  2  0
 25 22  1  0
M  END

$$$$
