No_3026-gen_results/8p0m/2024-11-27-11-27-31/
     RDKit          3D

 29 30  0  0  0  0  0  0  0  0999 V2000
  -28.0162   -0.8135   28.8779 C   0  0  0  0  0  0  0  0  0  0  0  0
  -27.0636   -0.1189   28.6079 C   0  0  0  0  0  0  0  0  0  0  0  0
  -25.7923   -0.4302   29.0761 C   0  0  0  0  0  0  0  0  0  0  0  0
  -24.5456    0.3494   28.8225 C   0  0  0  0  0  0  0  0  0  0  0  0
  -24.6586    1.4196   27.8878 C   0  0  0  0  0  0  0  0  0  0  0  0
  -25.9471    1.6811   27.3792 C   0  0  0  0  0  0  0  0  0  0  0  0
  -27.0439    0.9739   27.6871 C   0  0  0  0  0  0  0  0  0  0  0  0
  -28.6567   -0.5529   30.0960 N   0  0  0  0  0  0  0  0  0  0  0  0
  -29.5646   -0.5256   30.5354 C   0  0  0  0  0  0  0  0  0  0  0  0
  -29.8233   -0.2690   31.9262 N   0  0  0  0  0  0  0  0  0  0  0  0
  -30.7021   -1.0981   29.9020 N   0  0  0  0  0  0  0  0  0  0  0  0
  -23.4483    2.1466   27.5840 C   0  0  0  0  0  0  0  0  0  0  0  0
  -22.5186    1.8111   27.2214 N   0  0  0  0  0  0  0  0  0  0  0  0
  -23.7101    3.4944   27.5007 O   0  0  0  0  0  0  0  0  0  0  0  0
  -31.9988   -1.1692   30.4601 C   0  0  0  0  0  0  0  0  0  0  0  0
  -31.0981   -0.3155   32.4923 C   0  0  0  0  0  0  0  0  0  0  0  0
  -32.1427   -0.7870   31.7507 C   0  0  0  0  0  0  0  0  0  0  0  0
  -32.9108   -1.5811   29.7205 O   0  0  0  0  0  0  0  0  0  0  0  0
  -33.3534   -0.8381   32.3020 O   0  0  0  0  0  0  0  0  0  0  0  0
  -28.5343    1.3748   26.9907 Cl  0  0  0  0  0  0  0  0  0  0  0  0
  -23.2621   -0.0557   29.3948 C   0  0  0  0  0  0  0  0  0  0  0  0
  -21.3491    2.5130   27.0014 C   0  0  0  0  0  0  0  0  0  0  0  0
  -23.0285   -0.4733   30.3750 C   0  0  0  0  0  0  0  0  0  0  0  0
  -23.0058   -1.0859   31.4348 N   0  0  0  0  0  0  0  0  0  0  0  0
  -31.1772    0.0644   33.8022 N   0  0  0  0  0  0  0  0  0  0  0  0
  -30.5576    0.6952   34.5229 C   0  0  0  0  0  0  0  0  0  0  0  0
  -29.6888    1.6402   34.1526 C   0  0  0  0  0  0  0  0  0  0  0  0
  -30.0494    2.7186   33.4592 C   0  0  0  0  0  0  0  0  0  0  0  0
  -29.1378    3.6487   32.8988 C   0  0  0  0  0  0  0  0  0  0  0  0
  1  2  1  0
  1  8  1  0
  9 10  1  0
  9 11  1  0
  5 12  1  0
 12 13  1  0
 12 14  2  0
 11 15  1  0
 15 17  1  0
 16 17  1  0
 15 18  2  0
 17 19  1  0
  7 20  1  0
  4 21  1  0
 13 22  1  0
 21 23  1  0
 23 24  3  0
 16 25  1  0
 25 26  1  0
 26 27  2  3
 27 28  1  0
 28 29  2  0
  8  9  1  0
 10 16  1  0
  2  3  2  0
  3  4  1  0
  4  5  2  0
  5  6  1  0
  6  7  2  0
  7  2  1  0
M  END

$$$$
