No_368-gen_results/8p0m/2024-11-27-11-27-31/
     RDKit          3D

 30 33  0  0  0  0  0  0  0  0999 V2000
  -28.0162   -0.8135   28.8779 C   0  0  0  0  0  0  0  0  0  0  0  0
  -27.0636   -0.1189   28.6079 C   0  0  0  0  0  0  0  0  0  0  0  0
  -25.7647   -0.3897   29.0360 C   0  0  0  0  0  0  0  0  0  0  0  0
  -25.5296   -1.5302   29.9014 C   0  0  0  0  0  0  0  0  0  0  0  0
  -26.6888   -2.2893   30.1810 C   0  0  0  0  0  0  0  0  0  0  0  0
  -27.8727   -1.9508   29.7373 C   0  0  0  0  0  0  0  0  0  0  0  0
  -24.5491    0.4100   28.7341 C   0  0  0  0  0  0  0  0  0  0  0  0
  -23.3309    0.0437   29.0569 C   0  0  0  0  0  0  0  0  0  0  0  0
  -22.2197    0.8501   28.7113 C   0  0  0  0  0  0  0  0  0  0  0  0
  -22.3958    1.8472   27.7144 C   0  0  0  0  0  0  0  0  0  0  0  0
  -24.6549    1.4957   27.8042 C   0  0  0  0  0  0  0  0  0  0  0  0
  -23.6116    2.1850   27.3557 C   0  0  0  0  0  0  0  0  0  0  0  0
  -28.8285   -2.8029   30.2175 O   0  0  0  0  0  0  0  0  0  0  0  0
  -29.4288   -2.6701   31.2960 C   0  0  0  0  0  0  0  0  0  0  0  0
  -29.8549   -3.8411   31.8605 C   0  0  0  0  0  0  0  0  0  0  0  0
  -29.9735   -4.9008   31.1210 C   0  0  0  0  0  0  0  0  0  0  0  0
  -31.2248   -4.9656   30.3199 C   0  0  0  0  0  0  0  0  0  0  0  0
  -31.2801   -5.9105   29.3040 C   0  0  0  0  0  0  0  0  0  0  0  0
  -30.7375   -5.4751   28.0347 C   0  0  0  0  0  0  0  0  0  0  0  0
  -32.6778   -6.5281   29.0442 C   0  0  0  0  0  0  0  0  0  0  0  0
  -32.8566   -7.2754   28.1194 C   0  0  0  0  0  0  0  0  0  0  0  0
  -32.4457   -6.8234   26.7450 C   0  0  0  0  0  0  0  0  0  0  0  0
  -30.9673   -6.3783   26.8108 C   0  0  0  0  0  0  0  0  0  0  0  0
  -28.9581   -4.2626   33.0679 N   0  0  0  0  0  0  0  0  0  0  0  0
  -30.4485   -1.5162   31.3181 C   0  0  0  0  0  0  0  0  0  0  0  0
  -30.0472   -0.3932   31.9669 C   0  0  0  0  0  0  0  0  0  0  0  0
  -30.7554    0.7533   31.7527 C   0  0  0  0  0  0  0  0  0  0  0  0
  -31.9337    0.7188   31.0723 C   0  0  0  0  0  0  0  0  0  0  0  0
  -32.3092   -0.4424   30.4016 C   0  0  0  0  0  0  0  0  0  0  0  0
  -31.5097   -1.5761   30.4951 C   0  0  0  0  0  0  0  0  0  0  0  0
  3  7  1  0
  6 13  1  0
 13 14  1  0
 14 15  1  0
 15 16  1  0
 16 17  1  0
 17 18  1  0
 18 19  1  0
 18 20  1  0
 20 21  1  0
 21 22  1  0
 19 23  1  0
 22 23  1  0
 15 24  1  0
 14 25  1  0
  7  8  2  0
  8  9  1  0
  9 10  2  0
 10 12  1  0
 12 11  2  0
 11  7  1  0
  1  2  2  0
  2  3  1  0
  3  4  2  0
  4  5  1  0
  5  6  2  0
  6  1  1  0
 25 26  2  0
 26 27  1  0
 27 28  2  0
 28 29  1  0
 29 30  2  0
 30 25  1  0
M  END

$$$$
