No_3272-gen_results/8p0m/2024-11-27-11-27-31/
     RDKit          3D

 32 36  0  0  0  0  0  0  0  0999 V2000
  -28.0162   -0.8135   28.8779 C   0  0  0  0  0  0  0  0  0  0  0  0
  -28.4690   -0.7850   29.8287 C   0  0  0  0  0  0  0  0  0  0  0  0
  -26.5042   -0.7777   28.8766 C   0  0  0  0  0  0  0  0  0  0  0  0
  -25.8103   -0.8531   30.1028 C   0  0  0  0  0  0  0  0  0  0  0  0
  -27.9906   -0.8916   31.2257 C   0  0  0  0  0  0  0  0  0  0  0  0
  -26.6042   -0.8676   31.2652 C   0  0  0  0  0  0  0  0  0  0  0  0
  -29.9765   -0.8288   29.8497 N   0  0  0  0  0  0  0  0  0  0  0  0
  -30.7392   -1.6442   30.3465 C   0  0  0  0  0  0  0  0  0  0  0  0
  -32.1192   -1.5829   30.0929 C   0  0  0  0  0  0  0  0  0  0  0  0
  -30.6973    0.3077   29.4474 C   0  0  0  0  0  0  0  0  0  0  0  0
  -31.9163    0.3905   29.1409 C   0  0  0  0  0  0  0  0  0  0  0  0
  -32.7086   -0.5793   29.5628 C   0  0  0  0  0  0  0  0  0  0  0  0
  -25.6133   -0.7383   27.8461 O   0  0  0  0  0  0  0  0  0  0  0  0
  -25.0252    0.4755   27.5910 C   0  0  0  0  0  0  0  0  0  0  0  0
  -25.3711    1.1215   26.3806 C   0  0  0  0  0  0  0  0  0  0  0  0
  -26.1332    1.8096   26.4219 C   0  0  0  0  0  0  0  0  0  0  0  0
  -27.0746    1.9321   25.3478 C   0  0  0  0  0  0  0  0  0  0  0  0
  -28.2199    2.8002   25.3877 C   0  0  0  0  0  0  0  0  0  0  0  0
  -28.4001    3.6192   26.5366 C   0  0  0  0  0  0  0  0  0  0  0  0
  -27.5211    3.5072   27.5830 C   0  0  0  0  0  0  0  0  0  0  0  0
  -26.4134    2.5774   27.5893 C   0  0  0  0  0  0  0  0  0  0  0  0
  -23.8948    0.9424   28.4182 C   0  0  0  0  0  0  0  0  0  0  0  0
  -22.7426    0.2606   28.2458 C   0  0  0  0  0  0  0  0  0  0  0  0
  -22.1958   -0.2065   29.6423 C   0  0  0  0  0  0  0  0  0  0  0  0
  -24.2094    1.1226   29.9122 C   0  0  0  0  0  0  0  0  0  0  0  0
  -24.5196    2.4935   30.4916 C   0  0  0  0  0  0  0  0  0  0  0  0
  -22.7057    0.7011   30.5420 C   0  0  0  0  0  0  0  0  0  0  0  0
  -23.8129    3.3086   31.0051 C   0  0  0  0  0  0  0  0  0  0  0  0
  -24.3260    4.4747   31.7083 C   0  0  0  0  0  0  0  0  0  0  0  0
  -25.6371    4.8583   31.5579 C   0  0  0  0  0  0  0  0  0  0  0  0
  -26.4494    3.8533   30.9575 C   0  0  0  0  0  0  0  0  0  0  0  0
  -25.9676    2.7192   30.4553 C   0  0  0  0  0  0  0  0  0  0  0  0
  2  7  1  0
  7  8  1  0
  7 10  1  0
  9 12  1  0
 11 12  1  0
  3 13  1  0
 13 14  1  0
 14 15  1  0
 15 16  1  0
 14 22  1  0
 22 23  1  0
 23 24  1  0
 22 25  1  0
 25 26  1  0
 24 27  1  0
 25 27  1  0
  8  9  1  0
 11 10  1  0
 26 28  2  0
 28 29  1  0
 29 30  2  0
 30 31  1  0
 31 32  2  0
 32 26  1  0
  1  2  2  0
  2  5  1  0
  5  6  2  0
  6  4  1  0
  4  3  2  0
  3  1  1  0
 16 17  2  0
 17 18  1  0
 18 19  2  0
 19 20  1  0
 20 21  2  0
 21 16  1  0
M  END

$$$$
