No_3577-gen_results/8p0m/2024-11-27-11-27-31/
     RDKit          3D

 16 16  0  0  0  0  0  0  0  0999 V2000
  -28.0162   -0.8135   28.8779 C   0  0  0  0  0  0  0  0  0  0  0  0
  -27.0636   -0.1190   28.6079 C   0  0  0  0  0  0  0  0  0  0  0  0
  -25.7647   -0.3897   29.0360 C   0  0  0  0  0  0  0  0  0  0  0  0
  -24.5516    0.4058   28.7646 C   0  0  0  0  0  0  0  0  0  0  0  0
  -24.6957    1.4480   27.7988 C   0  0  0  0  0  0  0  0  0  0  0  0
  -25.9755    1.7250   27.3077 C   0  0  0  0  0  0  0  0  0  0  0  0
  -27.0718    1.0134   27.6535 C   0  0  0  0  0  0  0  0  0  0  0  0
  -29.1830   -0.1483   29.1167 N   0  0  0  0  0  0  0  0  0  0  0  0
  -29.6123    0.1122   30.3365 C   0  0  0  0  0  0  0  0  0  0  0  0
  -30.2526   -0.6126   28.1891 C   0  0  0  0  0  0  0  0  0  0  0  0
  -23.5019    2.2373   27.5127 C   0  0  0  0  0  0  0  0  0  0  0  0
  -23.6268    3.1552   26.6908 O   0  0  0  0  0  0  0  0  0  0  0  0
  -22.3781    2.1012   28.1243 O   0  0  0  0  0  0  0  0  0  0  0  0
  -31.3900    0.3134   28.0596 C   0  0  0  0  0  0  0  0  0  0  0  0
  -31.4903    0.9935   27.1262 C   0  0  0  0  0  0  0  0  0  0  0  0
  -32.6015    1.9510   27.0122 C   0  0  0  0  0  0  0  0  0  0  0  0
  1  2  2  3
  2  3  1  0
  3  4  1  0
  4  5  1  0
  5  6  1  0
  2  7  1  0
  6  7  1  0
  1  8  1  0
  8  9  1  0
  8 10  1  0
  5 11  1  0
 11 12  2  0
 11 13  1  0
 10 14  1  0
 14 15  2  3
 15 16  1  0
M  END

$$$$
