No_3208-gen_results/8p0m/2024-11-27-11-27-31/
     RDKit          3D

 20 22  0  0  0  0  0  0  0  0999 V2000
  -28.0162   -0.8135   28.8779 C   0  0  0  0  0  0  0  0  0  0  0  0
  -27.0636   -0.1189   28.6079 C   0  0  0  0  0  0  0  0  0  0  0  0
  -25.7647   -0.3897   29.0360 C   0  0  0  0  0  0  0  0  0  0  0  0
  -25.5296   -1.5302   29.9014 C   0  0  0  0  0  0  0  0  0  0  0  0
  -26.6888   -2.2893   30.1810 C   0  0  0  0  0  0  0  0  0  0  0  0
  -27.8727   -1.9508   29.7373 C   0  0  0  0  0  0  0  0  0  0  0  0
  -24.6993    0.3604   28.7753 F   0  0  0  0  0  0  0  0  0  0  0  0
  -28.9126   -2.9242   30.2790 C   0  0  0  0  0  0  0  0  0  0  0  0
  -30.0887   -2.5158   30.3572 N   0  0  0  0  0  0  0  0  0  0  0  0
  -28.6484   -4.1753   30.3205 O   0  0  0  0  0  0  0  0  0  0  0  0
  -31.2195   -3.3898   30.7295 C   0  0  0  0  0  0  0  0  0  0  0  0
  -32.3107   -3.1598   30.0920 C   0  0  0  0  0  0  0  0  0  0  0  0
  -32.2166   -2.7236   29.0201 C   0  0  0  0  0  0  0  0  0  0  0  0
  -32.9718   -2.9113   27.9562 C   0  0  0  0  0  0  0  0  0  0  0  0
  -32.7817   -2.7510   26.8668 C   0  0  0  0  0  0  0  0  0  0  0  0
  -31.9012   -1.6372   26.4259 C   0  0  0  0  0  0  0  0  0  0  0  0
  -31.2093   -1.0654   27.4585 C   0  0  0  0  0  0  0  0  0  0  0  0
  -31.2832   -1.5910   28.6798 C   0  0  0  0  0  0  0  0  0  0  0  0
  -30.5262   -1.1944   30.2670 C   0  0  0  0  0  0  0  0  0  0  0  0
  -30.9065   -4.2051   31.6689 O   0  0  0  0  0  0  0  0  0  0  0  0
  3  7  1  0
  6  8  1  0
  8  9  1  0
  8 10  2  0
  9 11  1  0
 11 12  1  0
 12 13  1  0
  9 19  1  0
 18 19  1  0
 11 20  2  0
  1  2  2  0
  2  3  1  0
  3  4  2  0
  4  5  1  0
  5  6  2  0
  6  1  1  0
 13 14  2  0
 14 15  1  0
 15 16  2  0
 16 17  1  0
 17 18  2  0
 18 13  1  0
M  END

$$$$
