No_3175-gen_results/8p0m/2024-11-27-11-27-31/
     RDKit          3D

 27 30  0  0  0  0  0  0  0  0999 V2000
  -28.0162   -0.8135   28.8779 C   0  0  0  0  0  0  0  0  0  0  0  0
  -27.0636   -0.1190   28.6079 C   0  0  0  0  0  0  0  0  0  0  0  0
  -27.0010    0.6913   27.4910 C   0  0  0  0  0  0  0  0  0  0  0  0
  -25.8548    1.4825   27.0830 C   0  0  0  0  0  0  0  0  0  0  0  0
  -24.6901    1.4526   27.8807 C   0  0  0  0  0  0  0  0  0  0  0  0
  -24.7379    0.6010   29.0416 C   0  0  0  0  0  0  0  0  0  0  0  0
  -25.8234   -0.1688   29.3887 C   0  0  0  0  0  0  0  0  0  0  0  0
  -29.2075   -0.1514   29.0660 N   0  0  0  0  0  0  0  0  0  0  0  0
  -30.2318   -0.7607   29.6957 C   0  0  0  0  0  0  0  0  0  0  0  0
  -23.5223    2.2141   27.5499 C   0  0  0  0  0  0  0  0  0  0  0  0
  -23.4475    2.8032   26.4394 O   0  0  0  0  0  0  0  0  0  0  0  0
  -22.2404    1.7476   27.9855 N   0  0  0  0  0  0  0  0  0  0  0  0
  -27.9297   -1.9496   29.2318 O   0  0  0  0  0  0  0  0  0  0  0  0
  -29.4479    1.1958   28.6577 C   0  0  0  0  0  0  0  0  0  0  0  0
  -29.7598    2.0222   29.7395 C   0  0  0  0  0  0  0  0  0  0  0  0
  -31.1130    1.6772   30.2417 C   0  0  0  0  0  0  0  0  0  0  0  0
  -30.9646    0.1477   30.6888 C   0  0  0  0  0  0  0  0  0  0  0  0
  -32.1971    1.8099   29.2831 C   0  0  0  0  0  0  0  0  0  0  0  0
  -32.6505    2.7554   29.0935 C   0  0  0  0  0  0  0  0  0  0  0  0
  -33.7931    2.9646   28.1130 C   0  0  0  0  0  0  0  0  0  0  0  0
  -34.2038    1.8097   27.4939 C   0  0  0  0  0  0  0  0  0  0  0  0
  -33.6060    0.6208   27.7128 C   0  0  0  0  0  0  0  0  0  0  0  0
  -32.6233    0.5705   28.6104 C   0  0  0  0  0  0  0  0  0  0  0  0
  -31.3786    2.2896   31.5092 C   0  0  0  0  0  0  0  0  0  0  0  0
  -32.1052   -0.4144   31.4134 C   0  0  0  0  0  0  0  0  0  0  0  0
  -32.2057    1.9586   32.3994 N   0  0  0  0  0  0  0  0  0  0  0  0
  -32.2556    0.4936   32.6068 C   0  0  0  0  0  0  0  0  0  0  0  0
  1  2  1  0
  1  8  1  0
  8  9  1  0
  5 10  1  0
 10 11  2  0
 10 12  1  0
  1 13  2  0
  8 14  1  0
 15 16  1  0
  9 17  1  0
 16 17  1  0
 16 18  1  0
 16 24  1  0
 17 25  1  0
 24 26  1  0
 25 27  1  0
 26 27  1  0
 15 14  1  0
 18 19  2  0
 19 20  1  0
 20 21  2  0
 21 22  1  0
 22 23  2  0
 23 18  1  0
  2  3  2  0
  3  4  1  0
  4  5  2  0
  5  6  1  0
  6  7  2  0
  7  2  1  0
M  END

$$$$
