No_3449-gen_results/8p0m/2024-11-27-11-27-31/
     RDKit          3D

 19 20  0  0  0  0  0  0  0  0999 V2000
  -28.0162   -0.8135   28.8779 C   0  0  0  0  0  0  0  0  0  0  0  0
  -28.4690   -0.7850   29.8287 C   0  0  0  0  0  0  0  0  0  0  0  0
  -28.1960    0.3478   28.0550 C   0  0  0  0  0  0  0  0  0  0  0  0
  -29.0191    1.3501   28.3782 C   0  0  0  0  0  0  0  0  0  0  0  0
  -29.6249    1.2683   29.6012 C   0  0  0  0  0  0  0  0  0  0  0  0
  -29.3791    0.1470   30.3923 C   0  0  0  0  0  0  0  0  0  0  0  0
  -27.5461    0.5105   26.6832 C   0  0  0  0  0  0  0  0  0  0  0  0
  -28.2157    0.3586   25.2236 P   0  0  0  0  0  0  0  0  0  0  0  0
  -28.9670    1.5034   24.9787 O   0  0  0  0  0  0  0  0  0  0  0  0
  -27.1864    0.1334   24.2039 O   0  0  0  0  0  0  0  0  0  0  0  0
  -29.2342   -0.8339   25.2866 O   0  0  0  0  0  0  0  0  0  0  0  0
  -29.8539   -1.1795   24.1430 C   0  0  0  0  0  0  0  0  0  0  0  0
  -29.9179   -0.0075   31.6606 O   0  0  0  0  0  0  0  0  0  0  0  0
  -30.4812   -0.9156   32.0287 C   0  0  0  0  0  0  0  0  0  0  0  0
  -31.4500   -1.4844   31.4458 C   0  0  0  0  0  0  0  0  0  0  0  0
  -32.0317   -2.7168   31.8606 C   0  0  0  0  0  0  0  0  0  0  0  0
  -31.5295   -3.3410   33.0221 C   0  0  0  0  0  0  0  0  0  0  0  0
  -30.4613   -2.8001   33.6959 C   0  0  0  0  0  0  0  0  0  0  0  0
  -29.8833   -1.6146   33.2278 C   0  0  0  0  0  0  0  0  0  0  0  0
  3  7  1  0
  7  8  1  0
  8  9  1  0
  8 10  2  0
  8 11  1  0
 11 12  1  0
  6 13  1  0
 13 14  1  0
 14 15  2  0
 15 16  1  0
 16 17  2  0
 17 18  1  0
 18 19  2  0
 19 14  1  0
  1  2  2  0
  2  6  1  0
  6  5  2  0
  5  4  1  0
  4  3  2  0
  3  1  1  0
M  END

$$$$
