No_3437-gen_results/8p0m/2024-11-27-11-27-31/
     RDKit          3D

 15 16  0  0  0  0  0  0  0  0999 V2000
  -28.0162   -0.8135   28.8779 C   0  0  0  0  0  0  0  0  0  0  0  0
  -27.0636   -0.1190   28.6079 C   0  0  0  0  0  0  0  0  0  0  0  0
  -26.9716    0.7139   27.5060 C   0  0  0  0  0  0  0  0  0  0  0  0
  -28.1053    0.7744   26.6421 C   0  0  0  0  0  0  0  0  0  0  0  0
  -29.2041    0.1179   27.0477 C   0  0  0  0  0  0  0  0  0  0  0  0
  -29.2127   -0.6088   28.1281 C   0  0  0  0  0  0  0  0  0  0  0  0
  -25.7106    1.4518   27.1380 C   0  0  0  0  0  0  0  0  0  0  0  0
  -25.2074    2.4128   27.9320 C   0  0  0  0  0  0  0  0  0  0  0  0
  -24.1169    2.9675   27.8288 C   0  0  0  0  0  0  0  0  0  0  0  0
  -23.1991    2.5129   26.7722 C   0  0  0  0  0  0  0  0  0  0  0  0
  -24.7873    0.9100   26.2232 C   0  0  0  0  0  0  0  0  0  0  0  0
  -23.6076    1.5107   25.9830 C   0  0  0  0  0  0  0  0  0  0  0  0
  -27.8017    1.5156   25.5196 N   0  0  0  0  0  0  0  0  0  0  0  0
  -28.3040    2.7503   25.4903 C   0  0  0  0  0  0  0  0  0  0  0  0
  -27.4532    0.9156   24.3019 C   0  0  0  0  0  0  0  0  0  0  0  0
  3  7  1  0
  4 13  1  0
 13 14  1  0
 13 15  1  0
  7  8  2  0
  8  9  1  0
  9 10  2  0
 10 12  1  0
 12 11  2  0
 11  7  1  0
  1  2  2  0
  2  3  1  0
  3  4  2  0
  4  5  1  0
  5  6  2  0
  6  1  1  0
M  END

$$$$
