No_3887-gen_results/8p0m/2024-11-27-11-27-31/
     RDKit          3D

 13 13  0  0  0  0  0  0  0  0999 V2000
  -28.0544   -1.0498   28.7246 N   0  0  0  0  0  0  0  0  0  0  0  0
  -27.7460   -0.0733   29.0098 C   0  0  0  0  0  0  0  0  0  0  0  0
  -27.1741    0.7325   28.8254 C   0  0  0  0  0  0  0  0  0  0  0  0
  -26.3364    1.3983   28.5352 C   0  0  0  0  0  0  0  0  0  0  0  0
  -25.2160    1.9556   28.0399 C   0  0  0  0  0  0  0  0  0  0  0  0
  -23.9423    1.5824   28.2237 C   0  0  0  0  0  0  0  0  0  0  0  0
  -23.4575    1.6833   29.3545 F   0  0  0  0  0  0  0  0  0  0  0  0
  -23.6401    0.3755   27.6856 F   0  0  0  0  0  0  0  0  0  0  0  0
  -23.0751    2.4012   27.4071 F   0  0  0  0  0  0  0  0  0  0  0  0
  -28.3411    0.0796   30.4594 C   0  0  0  0  0  0  0  0  0  0  0  0
  -29.2486   -0.8514   30.9760 C   0  0  0  0  0  0  0  0  0  0  0  0
  -29.4673   -1.9930   30.3180 C   0  0  0  0  0  0  0  0  0  0  0  0
  -28.7664   -2.1029   29.2368 C   0  0  0  0  0  0  0  0  0  0  0  0
  3  4  1  0
  4  5  2  3
  5  6  1  0
  6  7  1  0
  6  8  1  0
  6  9  1  0
  3  2  1  0
  1  2  2  0
  2 10  1  0
 10 11  2  0
 11 12  1  0
 12 13  2  0
 13  1  1  0
M  END

$$$$
