No_3257-gen_results/8p0m/2024-11-27-11-27-31/
     RDKit          3D

 18 20  0  0  0  0  0  0  0  0999 V2000
  -28.0162   -0.8135   28.8779 C   0  0  0  0  0  0  0  0  0  0  0  0
  -28.4690   -0.7850   29.8287 C   0  0  0  0  0  0  0  0  0  0  0  0
  -27.1356    0.2359   28.5352 C   0  0  0  0  0  0  0  0  0  0  0  0
  -26.8745    1.2825   29.3982 C   0  0  0  0  0  0  0  0  0  0  0  0
  -27.5070    1.2380   30.6295 C   0  0  0  0  0  0  0  0  0  0  0  0
  -28.3293    0.1745   30.9350 C   0  0  0  0  0  0  0  0  0  0  0  0
  -26.4077    0.3070   27.2259 C   0  0  0  0  0  0  0  0  0  0  0  0
  -25.0105    0.3902   27.3228 C   0  0  0  0  0  0  0  0  0  0  0  0
  -27.0459    0.3288   26.0049 C   0  0  0  0  0  0  0  0  0  0  0  0
  -28.4008    0.3616   25.8738 C   0  0  0  0  0  0  0  0  0  0  0  0
  -29.2070    0.7225   26.9188 C   0  0  0  0  0  0  0  0  0  0  0  0
  -30.6633    0.8079   26.5344 C   0  0  0  0  0  0  0  0  0  0  0  0
  -30.9929    0.5152   25.2684 C   0  0  0  0  0  0  0  0  0  0  0  0
  -29.0507    0.2566   24.5792 C   0  0  0  0  0  0  0  0  0  0  0  0
  -30.2694    0.2600   24.2841 C   0  0  0  0  0  0  0  0  0  0  0  0
  -26.1949    0.1554   24.8613 C   0  0  0  0  0  0  0  0  0  0  0  0
  -24.7661    0.3276   25.0159 C   0  0  0  0  0  0  0  0  0  0  0  0
  -24.1931    0.3524   26.1951 C   0  0  0  0  0  0  0  0  0  0  0  0
  3  7  1  0
  9 10  1  0
 10 11  2  0
 11 12  1  0
 12 13  2  0
 13 15  1  0
 15 14  2  0
 14 10  1  0
  1  2  2  0
  2  6  1  0
  6  5  2  0
  5  4  1  0
  4  3  2  0
  3  1  1  0
  7  8  2  0
  8 18  1  0
 18 17  2  0
 17 16  1  0
 16  9  2  0
  9  7  1  0
M  END

$$$$
