No_3145-gen_results/8p0m/2024-11-27-11-27-31/
     RDKit          3D

 25 26  0  0  0  0  0  0  0  0999 V2000
  -28.0162   -0.8135   28.8779 C   0  0  0  0  0  0  0  0  0  0  0  0
  -27.0636   -0.1190   28.6079 C   0  0  0  0  0  0  0  0  0  0  0  0
  -26.9287    1.1713   29.0083 C   0  0  0  0  0  0  0  0  0  0  0  0
  -25.7702    2.0341   28.6884 C   0  0  0  0  0  0  0  0  0  0  0  0
  -24.7141    1.4431   27.9188 C   0  0  0  0  0  0  0  0  0  0  0  0
  -24.8590    0.0783   27.5836 C   0  0  0  0  0  0  0  0  0  0  0  0
  -25.9647   -0.6606   27.9164 C   0  0  0  0  0  0  0  0  0  0  0  0
  -28.5006   -0.3246   30.1852 F   0  0  0  0  0  0  0  0  0  0  0  0
  -23.5381    2.1521   27.5487 C   0  0  0  0  0  0  0  0  0  0  0  0
  -23.4421    2.7263   26.5782 F   0  0  0  0  0  0  0  0  0  0  0  0
  -22.3849    1.7999   28.1594 F   0  0  0  0  0  0  0  0  0  0  0  0
  -29.1164   -1.0510   28.3815 F   0  0  0  0  0  0  0  0  0  0  0  0
  -25.4418    3.1120   29.5333 C   0  0  0  0  0  0  0  0  0  0  0  0
  -25.4957    3.0194   30.9537 C   0  0  0  0  0  0  0  0  0  0  0  0
  -25.1894    3.9961   31.6211 O   0  0  0  0  0  0  0  0  0  0  0  0
  -25.8263    1.8962   31.4611 O   0  0  0  0  0  0  0  0  0  0  0  0
  -27.7783   -2.0421   29.6184 F   0  0  0  0  0  0  0  0  0  0  0  0
  -26.0320    1.8326   32.8700 C   0  0  0  0  0  0  0  0  0  0  0  0
  -26.1429    0.4220   33.3092 C   0  0  0  0  0  0  0  0  0  0  0  0
  -26.5350    0.1676   34.4979 C   0  0  0  0  0  0  0  0  0  0  0  0
  -26.5028   -1.1839   34.8811 C   0  0  0  0  0  0  0  0  0  0  0  0
  -27.1345   -1.4934   36.1612 C   0  0  0  0  0  0  0  0  0  0  0  0
  -27.6688   -0.4887   36.9257 C   0  0  0  0  0  0  0  0  0  0  0  0
  -27.7258    0.7982   36.5094 C   0  0  0  0  0  0  0  0  0  0  0  0
  -27.2137    1.1587   35.2816 C   0  0  0  0  0  0  0  0  0  0  0  0
  1  2  1  0
  1  8  1  0
  5  9  1  0
  9 10  1  0
  9 11  1  0
  1 12  1  0
  4 13  1  0
 13 14  1  0
 14 15  2  0
 14 16  1  0
  1 17  1  0
 16 18  1  0
 18 19  1  0
 19 20  1  0
  2  3  2  0
  3  4  1  0
  4  5  2  0
  5  6  1  0
  6  7  2  0
  7  2  1  0
 20 21  2  0
 21 22  1  0
 22 23  2  0
 23 24  1  0
 24 25  2  0
 25 20  1  0
M  END

$$$$
