No_3838-gen_results/8p0m/2024-11-27-11-27-31/
     RDKit          3D

 21 21  0  0  0  0  0  0  0  0999 V2000
  -28.0162   -0.8135   28.8779 C   0  0  0  0  0  0  0  0  0  0  0  0
  -27.0636   -0.1189   28.6079 C   0  0  0  0  0  0  0  0  0  0  0  0
  -25.7923   -0.4302   29.0761 C   0  0  0  0  0  0  0  0  0  0  0  0
  -24.5456    0.3494   28.8225 C   0  0  0  0  0  0  0  0  0  0  0  0
  -24.6586    1.4196   27.8878 C   0  0  0  0  0  0  0  0  0  0  0  0
  -25.9471    1.6811   27.3792 C   0  0  0  0  0  0  0  0  0  0  0  0
  -27.0439    0.9739   27.6871 C   0  0  0  0  0  0  0  0  0  0  0  0
  -29.1882   -0.1472   29.0918 N   0  0  0  0  0  0  0  0  0  0  0  0
  -30.2017   -0.7833   29.7303 C   0  0  0  0  0  0  0  0  0  0  0  0
  -23.4507    2.1524   27.6005 C   0  0  0  0  0  0  0  0  0  0  0  0
  -22.2617    1.7464   28.0912 N   0  0  0  0  0  0  0  0  0  0  0  0
  -23.4953    3.0279   26.6797 O   0  0  0  0  0  0  0  0  0  0  0  0
  -31.5119   -0.4760   29.4416 C   0  0  0  0  0  0  0  0  0  0  0  0
  -29.9930   -1.6622   30.6326 O   0  0  0  0  0  0  0  0  0  0  0  0
  -31.8316    0.4657   28.8668 O   0  0  0  0  0  0  0  0  0  0  0  0
  -32.4289   -1.5292   29.4807 O   0  0  0  0  0  0  0  0  0  0  0  0
  -20.9600    2.2420   27.4995 C   0  0  0  0  0  0  0  0  0  0  0  0
  -25.5135   -1.5677   29.9830 C   0  0  0  0  0  0  0  0  0  0  0  0
  -25.5259   -1.3182   31.0982 F   0  0  0  0  0  0  0  0  0  0  0  0
  -26.6749   -2.4083   29.7327 F   0  0  0  0  0  0  0  0  0  0  0  0
  -24.4199   -2.2059   29.6607 F   0  0  0  0  0  0  0  0  0  0  0  0
  1  2  1  0
  1  8  1  0
  8  9  1  0
  5 10  1  0
 10 11  1  0
 10 12  2  0
  9 13  1  0
  9 14  2  0
 13 15  2  0
 13 16  1  0
 11 17  1  0
  3 18  1  0
 18 19  1  0
 18 20  1  0
 18 21  1  0
  2  3  2  0
  3  4  1  0
  4  5  2  0
  5  6  1  0
  6  7  2  0
  7  2  1  0
M  END

$$$$
