No_3883-gen_results/8p0m/2024-11-27-11-27-31/
     RDKit          3D

 10 10  0  0  0  0  0  0  0  0999 V2000
  -28.1229   -1.3353   28.4874 O   0  0  0  0  0  0  0  0  0  0  0  0
  -27.4806   -0.4044   28.7094 C   0  0  0  0  0  0  0  0  0  0  0  0
  -26.3804   -0.0867   27.9394 C   0  0  0  0  0  0  0  0  0  0  0  0
  -27.6664    0.4468   29.8988 N   0  0  0  0  0  0  0  0  0  0  0  0
  -25.8048    1.1658   28.0750 C   0  0  0  0  0  0  0  0  0  0  0  0
  -25.9731    1.9067   29.2602 C   0  0  0  0  0  0  0  0  0  0  0  0
  -27.0015    1.5416   30.1029 C   0  0  0  0  0  0  0  0  0  0  0  0
  -24.6400    1.5804   27.1952 C   0  0  0  0  0  0  0  0  0  0  0  0
  -24.0100    2.7409   27.2218 C   0  0  0  0  0  0  0  0  0  0  0  0
  -24.4831    3.6170   28.3286 C   0  0  0  0  0  0  0  0  0  0  0  0
  1  2  2  0
  2  3  1  0
  2  4  1  0
  3  5  1  0
  4  7  1  0
  6  7  1  0
  5  8  1  0
  8  9  2  3
  9 10  1  0
  5  6  1  0
M  END

$$$$
