No_3728-gen_results/8p0m/2024-11-27-11-27-31/
     RDKit          3D

 14 15  0  0  0  0  0  0  0  0999 V2000
  -28.1229   -1.3353   28.4874 O   0  0  0  0  0  0  0  0  0  0  0  0
  -27.4806   -0.4044   28.7094 C   0  0  0  0  0  0  0  0  0  0  0  0
  -26.3804   -0.0867   27.9394 C   0  0  0  0  0  0  0  0  0  0  0  0
  -27.6664    0.4468   29.8988 N   0  0  0  0  0  0  0  0  0  0  0  0
  -25.8048    1.1658   28.0750 C   0  0  0  0  0  0  0  0  0  0  0  0
  -25.9731    1.9067   29.2602 C   0  0  0  0  0  0  0  0  0  0  0  0
  -27.0015    1.5416   30.1029 C   0  0  0  0  0  0  0  0  0  0  0  0
  -24.6491    1.5850   27.1967 C   0  0  0  0  0  0  0  0  0  0  0  0
  -23.6190    1.7112   27.1837 C   0  0  0  0  0  0  0  0  0  0  0  0
  -22.6799    2.2169   26.2032 C   0  0  0  0  0  0  0  0  0  0  0  0
  -25.2670    2.1259   25.9042 C   0  0  0  0  0  0  0  0  0  0  0  0
  -24.4691    2.6201   24.9374 C   0  0  0  0  0  0  0  0  0  0  0  0
  -23.1286    2.7040   25.1307 C   0  0  0  0  0  0  0  0  0  0  0  0
  -22.6842    1.0175   28.6910 Cl  0  0  0  0  0  0  0  0  0  0  0  0
  1  2  2  0
  2  3  1  0
  2  4  1  0
  3  5  1  0
  6  7  1  0
  5  8  1  0
  9 14  1  0
  5  6  1  0
  7  4  1  0
  8  9  2  0
  9 10  1  0
 10 13  2  0
 13 12  1  0
 12 11  2  0
 11  8  1  0
M  END

$$$$
