No_3108-gen_results/8p0m/2024-11-27-11-27-31/
     RDKit          3D

 19 21  0  0  0  0  0  0  0  0999 V2000
  -28.1229   -1.3353   28.4874 O   0  0  0  0  0  0  0  0  0  0  0  0
  -27.4806   -0.4044   28.7094 C   0  0  0  0  0  0  0  0  0  0  0  0
  -27.2412    0.3910   29.5098 N   0  0  0  0  0  0  0  0  0  0  0  0
  -26.4810   -0.1429   27.5424 N   0  0  0  0  0  0  0  0  0  0  0  0
  -25.5872    0.8054   27.6401 C   0  0  0  0  0  0  0  0  0  0  0  0
  -25.5480    1.6270   28.7298 C   0  0  0  0  0  0  0  0  0  0  0  0
  -26.3607    1.3809   29.7635 C   0  0  0  0  0  0  0  0  0  0  0  0
  -24.6846    0.7871   26.6481 N   0  0  0  0  0  0  0  0  0  0  0  0
  -23.6912    1.6205   26.5956 C   0  0  0  0  0  0  0  0  0  0  0  0
  -23.4193    2.4680   27.7219 C   0  0  0  0  0  0  0  0  0  0  0  0
  -24.3260    2.4925   28.7079 C   0  0  0  0  0  0  0  0  0  0  0  0
  -26.3657    2.1895   30.9902 C   0  0  0  0  0  0  0  0  0  0  0  0
  -27.3713    2.7498   31.3516 C   0  0  0  0  0  0  0  0  0  0  0  0
  -28.3457    2.9085   31.1806 C   0  0  0  0  0  0  0  0  0  0  0  0
  -29.3037    3.5929   31.4426 C   0  0  0  0  0  0  0  0  0  0  0  0
  -29.1049    4.4155   32.6469 C   0  0  0  0  0  0  0  0  0  0  0  0
  -27.8774    4.3801   33.2213 C   0  0  0  0  0  0  0  0  0  0  0  0
  -26.8771    3.6346   32.6417 C   0  0  0  0  0  0  0  0  0  0  0  0
  -25.0235    2.0151   31.6918 C   0  0  0  0  0  0  0  0  0  0  0  0
  1  2  2  0
  2  3  1  0
  2  4  1  0
  4  5  1  0
  3  7  1  0
  6  7  1  0
  7 12  1  0
 12 13  1  0
 12 19  1  0
 13 14  2  0
 14 15  1  0
 15 16  2  0
 16 17  1  0
 17 18  2  0
 18 13  1  0
  5  6  2  0
  6 11  1  0
 11 10  2  0
 10  9  1  0
  9  8  2  0
  8  5  1  0
M  END

$$$$
