No_3934-gen_results/8p0m/2024-11-27-11-27-31/
     RDKit          3D

 15 16  0  0  0  0  0  0  0  0999 V2000
  -28.0162   -0.8135   28.8779 C   0  0  0  0  0  0  0  0  0  0  0  0
  -27.0636   -0.1189   28.6079 C   0  0  0  0  0  0  0  0  0  0  0  0
  -27.0010    0.6913   27.4910 C   0  0  0  0  0  0  0  0  0  0  0  0
  -28.1373    0.7363   26.6350 C   0  0  0  0  0  0  0  0  0  0  0  0
  -29.2360    0.0765   27.0690 C   0  0  0  0  0  0  0  0  0  0  0  0
  -29.2177   -0.6429   28.1747 C   0  0  0  0  0  0  0  0  0  0  0  0
  -30.3222    0.1455   26.3092 F   0  0  0  0  0  0  0  0  0  0  0  0
  -25.7269   -0.1942   29.4070 C   0  0  0  0  0  0  0  0  0  0  0  0
  -24.5580    0.0076   28.8586 C   0  0  0  0  0  0  0  0  0  0  0  0
  -23.3275   -0.0889   29.5808 C   0  0  0  0  0  0  0  0  0  0  0  0
  -22.0921    0.2204   28.9329 C   0  0  0  0  0  0  0  0  0  0  0  0
  -22.0531    0.9851   27.7563 C   0  0  0  0  0  0  0  0  0  0  0  0
  -23.2577    1.3548   27.1319 C   0  0  0  0  0  0  0  0  0  0  0  0
  -24.5169    0.9222   27.6505 C   0  0  0  0  0  0  0  0  0  0  0  0
  -25.7623    1.1401   26.9729 C   0  0  0  0  0  0  0  0  0  0  0  0
  5  7  1  0
  2  8  1  0
 14 15  1  0
  8  9  1  0
  1  2  2  0
  2  3  1  0
  3  4  2  0
  4  5  1  0
  5  6  2  0
  6  1  1  0
  9 10  2  0
 10 11  1  0
 11 12  2  0
 12 13  1  0
 13 14  2  0
 14  9  1  0
M  END

$$$$
