No_3782-gen_results/8p0m/2024-11-27-11-27-31/
     RDKit          3D

 24 26  0  0  0  0  0  0  0  0999 V2000
  -28.0162   -0.8135   28.8779 C   0  0  0  0  0  0  0  0  0  0  0  0
  -28.4690   -0.7850   29.8287 C   0  0  0  0  0  0  0  0  0  0  0  0
  -28.1960    0.3478   28.0550 C   0  0  0  0  0  0  0  0  0  0  0  0
  -29.0191    1.3501   28.3782 C   0  0  0  0  0  0  0  0  0  0  0  0
  -29.4107    0.1803   30.3782 C   0  0  0  0  0  0  0  0  0  0  0  0
  -29.6059    1.2495   29.6193 C   0  0  0  0  0  0  0  0  0  0  0  0
  -27.4597    0.3802   26.7091 C   0  0  0  0  0  0  0  0  0  0  0  0
  -26.0094    0.3317   26.7236 C   0  0  0  0  0  0  0  0  0  0  0  0
  -25.1948    0.9248   26.8189 C   0  0  0  0  0  0  0  0  0  0  0  0
  -24.2025    1.2396   27.6499 C   0  0  0  0  0  0  0  0  0  0  0  0
  -23.0713    2.1495   27.3706 C   0  0  0  0  0  0  0  0  0  0  0  0
  -23.1053    2.6796   26.0721 C   0  0  0  0  0  0  0  0  0  0  0  0
  -24.7843    1.7729   25.4964 C   0  0  0  0  0  0  0  0  0  0  0  0
  -28.1330    0.6373   25.5244 C   0  0  0  0  0  0  0  0  0  0  0  0
  -28.2891   -0.3410   24.6706 C   0  0  0  0  0  0  0  0  0  0  0  0
  -28.7039    1.9307   25.2922 C   0  0  0  0  0  0  0  0  0  0  0  0
  -24.0341    0.6081   29.0422 C   0  0  0  0  0  0  0  0  0  0  0  0
  -24.5188    1.1977   30.1170 C   0  0  0  0  0  0  0  0  0  0  0  0
  -23.5710   -0.7402   29.0508 C   0  0  0  0  0  0  0  0  0  0  0  0
  -24.6723    0.5332   31.3231 C   0  0  0  0  0  0  0  0  0  0  0  0
  -23.6132   -1.4424   30.2440 C   0  0  0  0  0  0  0  0  0  0  0  0
  -24.1596   -0.7740   31.4218 C   0  0  0  0  0  0  0  0  0  0  0  0
  -28.2736   -2.0030   30.9019 C   0  0  0  0  0  0  0  0  0  0  0  0
  -28.6900   -1.9826   31.9807 N   0  0  0  0  0  0  0  0  0  0  0  0
  3  7  1  0
  7  8  2  3
  8  9  1  0
  9 10  2  0
 10 11  1  0
 11 12  2  0
  9 13  1  0
 12 13  1  0
  7 14  1  0
 14 15  1  0
 14 16  1  0
 10 17  1  0
  2 23  1  0
 23 24  2  0
 17 18  2  0
 18 20  1  0
 20 22  2  0
 22 21  1  0
 21 19  2  0
 19 17  1  0
  1  2  2  0
  2  5  1  0
  5  6  2  0
  6  4  1  0
  4  3  2  0
  3  1  1  0
M  END

$$$$
