No_3861-gen_results/8p0m/2024-11-27-11-27-31/
     RDKit          3D

 35 39  0  0  0  0  0  0  0  0999 V2000
  -28.0162   -0.8135   28.8779 C   0  0  0  0  0  0  0  0  0  0  0  0
  -27.0636   -0.1189   28.6079 C   0  0  0  0  0  0  0  0  0  0  0  0
  -25.7647   -0.3897   29.0360 C   0  0  0  0  0  0  0  0  0  0  0  0
  -25.5296   -1.5302   29.9014 C   0  0  0  0  0  0  0  0  0  0  0  0
  -26.6577   -2.2915   30.2035 C   0  0  0  0  0  0  0  0  0  0  0  0
  -27.8548   -1.9555   29.7630 C   0  0  0  0  0  0  0  0  0  0  0  0
  -24.5349    0.4128   28.7431 C   0  0  0  0  0  0  0  0  0  0  0  0
  -24.4835    1.2431   27.7398 C   0  0  0  0  0  0  0  0  0  0  0  0
  -25.5272    1.5993   26.8896 C   0  0  0  0  0  0  0  0  0  0  0  0
  -23.1408    1.9133   27.4867 C   0  0  0  0  0  0  0  0  0  0  0  0
  -22.0456    1.3656   28.0049 N   0  0  0  0  0  0  0  0  0  0  0  0
  -23.3001    0.0347   29.4025 C   0  0  0  0  0  0  0  0  0  0  0  0
  -22.0342    0.6840   29.0359 C   0  0  0  0  0  0  0  0  0  0  0  0
  -28.9343   -2.7072   30.1288 O   0  0  0  0  0  0  0  0  0  0  0  0
  -25.2413    2.1066   25.6728 C   0  0  0  0  0  0  0  0  0  0  0  0
  -26.4007    2.2441   24.9461 C   0  0  0  0  0  0  0  0  0  0  0  0
  -27.7035    2.0156   25.3924 C   0  0  0  0  0  0  0  0  0  0  0  0
  -27.8710    1.5659   26.6487 C   0  0  0  0  0  0  0  0  0  0  0  0
  -26.7787    1.3232   27.3864 C   0  0  0  0  0  0  0  0  0  0  0  0
  -30.0508   -2.1297   30.6076 C   0  0  0  0  0  0  0  0  0  0  0  0
  -30.0963   -1.2370   31.3662 C   0  0  0  0  0  0  0  0  0  0  0  0
  -31.2555   -0.4792   31.5871 C   0  0  0  0  0  0  0  0  0  0  0  0
  -32.3937   -0.9749   31.0393 C   0  0  0  0  0  0  0  0  0  0  0  0
  -31.2570   -2.1925   29.8252 C   0  0  0  0  0  0  0  0  0  0  0  0
  -31.1494   -3.2150   28.8492 O   0  0  0  0  0  0  0  0  0  0  0  0
  -32.4155   -1.7179   30.0407 C   0  0  0  0  0  0  0  0  0  0  0  0
  -33.4219   -2.1017   29.3242 O   0  0  0  0  0  0  0  0  0  0  0  0
  -33.5726   -0.2119   31.3150 O   0  0  0  0  0  0  0  0  0  0  0  0
  -33.6048    0.6049   32.2666 C   0  0  0  0  0  0  0  0  0  0  0  0
  -33.5135    1.9712   32.0086 C   0  0  0  0  0  0  0  0  0  0  0  0
  -33.9431    2.4895   30.8459 C   0  0  0  0  0  0  0  0  0  0  0  0
  -33.7474    3.8618   30.4828 C   0  0  0  0  0  0  0  0  0  0  0  0
  -34.1046    4.3585   29.2125 C   0  0  0  0  0  0  0  0  0  0  0  0
  -34.6583    3.4073   28.3047 C   0  0  0  0  0  0  0  0  0  0  0  0
  -34.8163    2.0794   28.6351 C   0  0  0  0  0  0  0  0  0  0  0  0
  6 14  1  0
 14 20  1  0
 20 21  1  0
 22 23  1  0
 20 24  1  0
 24 25  1  0
 23 26  1  0
 24 26  1  0
 26 27  2  0
 23 28  1  0
 28 29  1  0
 29 30  1  0
 30 31  2  3
 31 32  1  0
 32 33  2  3
 33 34  1  0
 34 35  2  0
 22 21  1  0
  1  2  2  0
  3  4  2  0
  4  5  1  0
  5  6  2  0
  6  1  1  0
  2  3  1  0
  3  7  1  0
  8  9  1  0
 19  2  1  0
  7  8  2  0
  8 10  1  0
 10 11  2  0
 11 13  1  0
 13 12  2  0
 12  7  1  0
  9 15  2  0
 15 16  1  0
 16 17  2  0
 17 18  1  0
 18 19  2  0
 19  9  1  0
M  END

$$$$
