No_3543-gen_results/8p0m/2024-11-27-11-27-31/
     RDKit          3D

 19 21  0  0  0  0  0  0  0  0999 V2000
  -28.0162   -0.8135   28.8779 C   0  0  0  0  0  0  0  0  0  0  0  0
  -27.0636   -0.1189   28.6079 C   0  0  0  0  0  0  0  0  0  0  0  0
  -25.7647   -0.3897   29.0360 C   0  0  0  0  0  0  0  0  0  0  0  0
  -25.5296   -1.5302   29.9014 C   0  0  0  0  0  0  0  0  0  0  0  0
  -26.6577   -2.2915   30.2035 C   0  0  0  0  0  0  0  0  0  0  0  0
  -27.8548   -1.9555   29.7630 C   0  0  0  0  0  0  0  0  0  0  0  0
  -24.5349    0.4128   28.7431 C   0  0  0  0  0  0  0  0  0  0  0  0
  -24.4835    1.2431   27.7398 C   0  0  0  0  0  0  0  0  0  0  0  0
  -23.2788    1.9376   27.4159 C   0  0  0  0  0  0  0  0  0  0  0  0
  -23.2264    2.8513   26.3340 C   0  0  0  0  0  0  0  0  0  0  0  0
  -23.3038    0.2200   29.5306 C   0  0  0  0  0  0  0  0  0  0  0  0
  -22.0399    1.7027   28.0984 C   0  0  0  0  0  0  0  0  0  0  0  0
  -22.0583    0.8568   29.1466 C   0  0  0  0  0  0  0  0  0  0  0  0
  -29.0063   -2.8084   30.1793 C   0  0  0  0  0  0  0  0  0  0  0  0
  -30.0478   -2.5376   30.0215 O   0  0  0  0  0  0  0  0  0  0  0  0
  -28.6545   -3.9355   30.8274 O   0  0  0  0  0  0  0  0  0  0  0  0
  -24.4182    3.0306   25.5860 C   0  0  0  0  0  0  0  0  0  0  0  0
  -25.6088    2.2969   25.9405 C   0  0  0  0  0  0  0  0  0  0  0  0
  -25.5795    1.4980   26.9451 C   0  0  0  0  0  0  0  0  0  0  0  0
  3  7  1  0
  6 14  1  0
 14 15  2  0
 14 16  1  0
  9 10  2  0
 10 17  1  0
 17 18  2  0
 18 19  1  0
 19  8  2  0
  1  2  2  0
  2  3  1  0
  3  4  2  0
  4  5  1  0
  5  6  2  0
  6  1  1  0
  7  8  1  0
  8  9  1  0
  9 12  1  0
 12 13  2  0
 13 11  1  0
 11  7  2  0
M  END

$$$$
