No_3262-gen_results/8p0m/2024-11-27-11-27-31/
     RDKit          3D

 28 32  0  0  0  0  0  0  0  0999 V2000
  -28.0162   -0.8135   28.8779 C   0  0  0  0  0  0  0  0  0  0  0  0
  -28.4690   -0.7850   29.8287 C   0  0  0  0  0  0  0  0  0  0  0  0
  -27.0871    0.2903   28.6377 C   0  0  0  0  0  0  0  0  0  0  0  0
  -26.2516    0.4114   27.4223 C   0  0  0  0  0  0  0  0  0  0  0  0
  -28.3913    0.1041   30.9805 C   0  0  0  0  0  0  0  0  0  0  0  0
  -27.5332    1.1666   30.7866 C   0  0  0  0  0  0  0  0  0  0  0  0
  -26.8281    1.2557   29.6454 C   0  0  0  0  0  0  0  0  0  0  0  0
  -25.9361    1.5378   27.1650 O   0  0  0  0  0  0  0  0  0  0  0  0
  -26.0270   -0.5731   26.7250 O   0  0  0  0  0  0  0  0  0  0  0  0
  -29.4636   -2.0061   30.2567 C   0  0  0  0  0  0  0  0  0  0  0  0
  -30.1641   -1.9667   31.1761 O   0  0  0  0  0  0  0  0  0  0  0  0
  -29.1963   -3.1143   29.6828 O   0  0  0  0  0  0  0  0  0  0  0  0
  -24.4702    1.8199   27.1161 C   0  0  0  0  0  0  0  0  0  0  0  0
  -23.8308    2.1704   28.2364 C   0  0  0  0  0  0  0  0  0  0  0  0
  -22.3704    2.0028   28.2751 C   0  0  0  0  0  0  0  0  0  0  0  0
  -21.6888    1.9201   27.0631 C   0  0  0  0  0  0  0  0  0  0  0  0
  -22.4276    1.7263   25.9163 C   0  0  0  0  0  0  0  0  0  0  0  0
  -23.8232    1.5840   25.8981 C   0  0  0  0  0  0  0  0  0  0  0  0
  -27.3675    2.1679   31.8745 C   0  0  0  0  0  0  0  0  0  0  0  0
  -26.5941    3.0531   31.8024 C   0  0  0  0  0  0  0  0  0  0  0  0
  -26.3314    4.1183   32.8189 C   0  0  0  0  0  0  0  0  0  0  0  0
  -25.3767    5.1982   32.6637 C   0  0  0  0  0  0  0  0  0  0  0  0
  -24.7914    5.2364   31.3675 C   0  0  0  0  0  0  0  0  0  0  0  0
  -25.0784    4.3327   30.4153 C   0  0  0  0  0  0  0  0  0  0  0  0
  -25.8918    3.3675   30.5862 C   0  0  0  0  0  0  0  0  0  0  0  0
  -26.0134    2.3811   29.4858 C   0  0  0  0  0  0  0  0  0  0  0  0
  -24.5087    2.3168   29.4364 O   0  0  0  0  0  0  0  0  0  0  0  0
  -26.7473    3.4383   28.5601 C   0  0  0  0  0  0  0  0  0  0  0  0
  3  4  1  0
  4  8  1  0
  4  9  2  0
  2 10  1  0
 10 11  2  0
 10 12  1  0
  8 13  1  0
  6 19  1  0
  7 26  1  0
 25 26  1  0
 14 27  1  0
 26 27  1  0
 26 28  1  0
 19 20  1  0
 13 14  2  0
 14 15  1  0
 15 16  2  0
 16 17  1  0
 17 18  2  0
 18 13  1  0
  1  2  2  0
  2  5  1  0
  5  6  2  0
  6  7  1  0
  7  3  2  0
  3  1  1  0
 20 21  2  0
 21 22  1  0
 22 23  2  0
 23 24  1  0
 24 25  2  0
 25 20  1  0
M  END

$$$$
