No_3308-gen_results/8p0m/2024-11-27-11-27-31/
     RDKit          3D

 14 15  0  0  0  0  0  0  0  0999 V2000
  -28.1493   -0.8198   28.9079 Cl  0  0  0  0  0  0  0  0  0  0  0  0
  -26.9116   -0.0797   28.9452 C   0  0  0  0  0  0  0  0  0  0  0  0
  -26.0490   -0.0718   27.8591 C   0  0  0  0  0  0  0  0  0  0  0  0
  -24.7194    0.4034   27.9174 C   0  0  0  0  0  0  0  0  0  0  0  0
  -24.2099    0.9302   29.0839 C   0  0  0  0  0  0  0  0  0  0  0  0
  -25.0231    0.9078   30.1875 C   0  0  0  0  0  0  0  0  0  0  0  0
  -26.2531    0.3904   30.1401 C   0  0  0  0  0  0  0  0  0  0  0  0
  -22.8500    1.4478   29.0593 C   0  0  0  0  0  0  0  0  0  0  0  0
  -22.0944    1.5228   27.9761 N   0  0  0  0  0  0  0  0  0  0  0  0
  -22.3433    1.8238   30.1599 O   0  0  0  0  0  0  0  0  0  0  0  0
  -27.2034    0.3338   31.6111 Cl  0  0  0  0  0  0  0  0  0  0  0  0
  -22.5331    1.3369   26.6339 C   0  0  0  0  0  0  0  0  0  0  0  0
  -23.8845    0.7682   26.6035 C   0  0  0  0  0  0  0  0  0  0  0  0
  -24.3856    0.4564   25.4734 O   0  0  0  0  0  0  0  0  0  0  0  0
  1  2  1  0
  5  8  1  0
  8  9  1  0
  8 10  2  0
  7 11  1  0
  9 12  1  0
  4 13  1  0
 12 13  1  0
 13 14  2  0
  2  3  2  0
  3  4  1  0
  4  5  2  0
  5  6  1  0
  6  7  2  0
  7  2  1  0
M  END

$$$$
