No_344-gen_results/8p0m/2024-11-27-11-27-31/
     RDKit          3D

 13 13  0  0  0  0  0  0  0  0999 V2000
  -28.0162   -0.8135   28.8779 C   0  0  0  0  0  0  0  0  0  0  0  0
  -28.4690   -0.7850   29.8287 C   0  0  0  0  0  0  0  0  0  0  0  0
  -28.1816    0.4277   28.1134 C   0  0  0  0  0  0  0  0  0  0  0  0
  -28.9841    1.4155   28.5154 C   0  0  0  0  0  0  0  0  0  0  0  0
  -29.3802    0.1384   30.4612 C   0  0  0  0  0  0  0  0  0  0  0  0
  -29.9932   -0.0234   31.7370 C   0  0  0  0  0  0  0  0  0  0  0  0
  -29.5370    1.2619   29.7119 C   0  0  0  0  0  0  0  0  0  0  0  0
  -27.4269    0.4618   26.7350 C   0  0  0  0  0  0  0  0  0  0  0  0
  -28.0975    0.2212   25.8176 F   0  0  0  0  0  0  0  0  0  0  0  0
  -26.8632    1.7505   26.5655 F   0  0  0  0  0  0  0  0  0  0  0  0
  -26.2317   -0.2675   26.7984 F   0  0  0  0  0  0  0  0  0  0  0  0
  -30.8284   -0.4188   32.1777 C   0  0  0  0  0  0  0  0  0  0  0  0
  -31.2871   -0.4713   33.5907 C   0  0  0  0  0  0  0  0  0  0  0  0
  5  6  1  0
  3  8  1  0
  8  9  1  0
  8 10  1  0
  8 11  1  0
  6 12  2  3
 12 13  1  0
  1  2  2  0
  2  5  1  0
  5  7  2  0
  7  4  1  0
  4  3  2  0
  3  1  1  0
M  END

$$$$
