No_3683-gen_results/8p0m/2024-11-27-11-27-31/
     RDKit          3D

 33 36  0  0  0  0  0  0  0  0999 V2000
  -28.0162   -0.8135   28.8779 C   0  0  0  0  0  0  0  0  0  0  0  0
  -27.0636   -0.1189   28.6079 C   0  0  0  0  0  0  0  0  0  0  0  0
  -25.7923   -0.4302   29.0761 C   0  0  0  0  0  0  0  0  0  0  0  0
  -25.5756   -1.5654   29.9363 C   0  0  0  0  0  0  0  0  0  0  0  0
  -26.7354   -2.3004   30.2173 C   0  0  0  0  0  0  0  0  0  0  0  0
  -27.9184   -1.9537   29.7629 C   0  0  0  0  0  0  0  0  0  0  0  0
  -29.0001   -2.7012   30.1151 O   0  0  0  0  0  0  0  0  0  0  0  0
  -24.5290    0.3490   28.7998 C   0  0  0  0  0  0  0  0  0  0  0  0
  -23.3442    0.0060   29.1658 C   0  0  0  0  0  0  0  0  0  0  0  0
  -22.1783    0.7811   28.7783 C   0  0  0  0  0  0  0  0  0  0  0  0
  -22.3217    1.7499   27.7727 C   0  0  0  0  0  0  0  0  0  0  0  0
  -24.6102    1.3558   27.7479 C   0  0  0  0  0  0  0  0  0  0  0  0
  -23.5148    2.0341   27.3068 C   0  0  0  0  0  0  0  0  0  0  0  0
  -28.8769   -3.9644   30.6079 C   0  0  0  0  0  0  0  0  0  0  0  0
  -30.1232   -4.6748   30.7699 C   0  0  0  0  0  0  0  0  0  0  0  0
  -31.0200   -4.0173   31.4246 C   0  0  0  0  0  0  0  0  0  0  0  0
  -30.8547   -2.9781   31.9909 C   0  0  0  0  0  0  0  0  0  0  0  0
  -32.0067   -2.0800   32.1996 C   0  0  0  0  0  0  0  0  0  0  0  0
  -33.0683   -2.2953   31.6593 C   0  0  0  0  0  0  0  0  0  0  0  0
  -33.3440   -3.5054   31.0174 C   0  0  0  0  0  0  0  0  0  0  0  0
  -32.3397   -4.3626   30.7819 C   0  0  0  0  0  0  0  0  0  0  0  0
  -32.5448   -5.5430   29.9955 C   0  0  0  0  0  0  0  0  0  0  0  0
  -32.5209   -5.5244   28.9481 C   0  0  0  0  0  0  0  0  0  0  0  0
  -32.5664   -6.7496   28.0417 C   0  0  0  0  0  0  0  0  0  0  0  0
  -32.4377   -7.9455   28.6224 C   0  0  0  0  0  0  0  0  0  0  0  0
  -32.2963   -6.8150   30.7368 C   0  0  0  0  0  0  0  0  0  0  0  0
  -32.2987   -8.0063   30.0142 C   0  0  0  0  0  0  0  0  0  0  0  0
  -34.6407   -3.7969   30.4430 C   0  0  0  0  0  0  0  0  0  0  0  0
  -35.3324   -3.0869   29.9032 O   0  0  0  0  0  0  0  0  0  0  0  0
  -35.2051   -4.8946   31.0104 O   0  0  0  0  0  0  0  0  0  0  0  0
  -27.7350   -4.4966   30.8430 O   0  0  0  0  0  0  0  0  0  0  0  0
  -32.1056   -9.3242   30.6476 C   0  0  0  0  0  0  0  0  0  0  0  0
  -31.7743   -9.3546   31.9612 C   0  0  0  0  0  0  0  0  0  0  0  0
  6  7  1  0
  3  8  1  0
  7 14  1  0
 14 15  1  0
 15 16  1  0
 21 22  1  0
 20 28  1  0
 28 29  2  0
 28 30  1  0
 14 31  2  0
 27 32  1  0
 32 33  2  0
  1  2  2  0
  2  3  1  0
  3  4  2  0
  4  5  1  0
  5  6  2  0
  6  1  1  0
 16 17  2  0
 17 18  1  0
 18 19  2  0
 19 20  1  0
 20 21  2  0
 21 16  1  0
 22 23  2  0
 23 24  1  0
 24 25  2  0
 25 27  1  0
 27 26  2  0
 26 22  1  0
  8  9  2  0
  9 10  1  0
 10 11  2  0
 11 13  1  0
 13 12  2  0
 12  8  1  0
M  END

$$$$
