No_3702-gen_results/8p0m/2024-11-27-11-27-31/
     RDKit          3D

 18 19  0  0  0  0  0  0  0  0999 V2000
  -28.0162   -0.8135   28.8779 C   0  0  0  0  0  0  0  0  0  0  0  0
  -28.4690   -0.7850   29.8287 C   0  0  0  0  0  0  0  0  0  0  0  0
  -28.1960    0.3478   28.0550 C   0  0  0  0  0  0  0  0  0  0  0  0
  -27.4421    0.5100   26.7946 C   0  0  0  0  0  0  0  0  0  0  0  0
  -26.1689   -0.0794   26.6787 C   0  0  0  0  0  0  0  0  0  0  0  0
  -25.7312   -0.9607   27.6875 C   0  0  0  0  0  0  0  0  0  0  0  0
  -26.5043   -1.2222   28.7582 C   0  0  0  0  0  0  0  0  0  0  0  0
  -29.6530   -0.2892   30.1660 C   0  0  0  0  0  0  0  0  0  0  0  0
  -30.0958    0.7019   29.2325 C   0  0  0  0  0  0  0  0  0  0  0  0
  -29.3716    1.1881   28.1860 C   0  0  0  0  0  0  0  0  0  0  0  0
  -27.7719    1.3758   25.6940 C   0  0  0  0  0  0  0  0  0  0  0  0
  -27.1374    2.3813   25.6989 F   0  0  0  0  0  0  0  0  0  0  0  0
  -27.6735    0.7378   24.4949 F   0  0  0  0  0  0  0  0  0  0  0  0
  -29.0982    1.7613   25.7763 F   0  0  0  0  0  0  0  0  0  0  0  0
  -26.0205   -2.2707   29.6856 C   0  0  0  0  0  0  0  0  0  0  0  0
  -26.9370   -2.9198   30.1093 F   0  0  0  0  0  0  0  0  0  0  0  0
  -25.3626   -1.7053   30.7334 F   0  0  0  0  0  0  0  0  0  0  0  0
  -25.0438   -2.9984   29.1184 F   0  0  0  0  0  0  0  0  0  0  0  0
  4 11  1  0
 11 12  1  0
 11 13  1  0
 11 14  1  0
  7 15  1  0
 15 16  1  0
 15 17  1  0
 15 18  1  0
  1  2  2  0
  2  8  1  0
  8  9  2  0
  9 10  1  0
 10  3  2  0
  1  3  1  0
  3  4  1  0
  4  5  2  0
  5  6  1  0
  6  7  2  0
  7  1  1  0
M  END

$$$$
