No_3776-gen_results/8p0m/2024-11-27-11-27-31/
     RDKit          3D

 21 23  0  0  0  0  0  0  0  0999 V2000
  -28.0162   -0.8135   28.8779 C   0  0  0  0  0  0  0  0  0  0  0  0
  -27.0636   -0.1189   28.6079 C   0  0  0  0  0  0  0  0  0  0  0  0
  -26.8756    1.1325   28.9134 C   0  0  0  0  0  0  0  0  0  0  0  0
  -27.9014    1.8066   29.6436 C   0  0  0  0  0  0  0  0  0  0  0  0
  -29.0458   -0.2316   29.7181 C   0  0  0  0  0  0  0  0  0  0  0  0
  -28.9402    1.0517   30.0597 C   0  0  0  0  0  0  0  0  0  0  0  0
  -30.1632   -1.1171   30.1252 C   0  0  0  0  0  0  0  0  0  0  0  0
  -31.3174   -0.9747   29.5525 C   0  0  0  0  0  0  0  0  0  0  0  0
  -31.6472   -0.0204   28.8456 C   0  0  0  0  0  0  0  0  0  0  0  0
  -32.5008    0.3345   28.1715 C   0  0  0  0  0  0  0  0  0  0  0  0
  -32.6945    1.5426   27.3462 C   0  0  0  0  0  0  0  0  0  0  0  0
  -31.6008    2.4319   27.3881 C   0  0  0  0  0  0  0  0  0  0  0  0
  -30.4589    2.1037   28.0126 C   0  0  0  0  0  0  0  0  0  0  0  0
  -30.3813    0.9791   28.7116 C   0  0  0  0  0  0  0  0  0  0  0  0
  -29.4771    0.3258   28.0008 F   0  0  0  0  0  0  0  0  0  0  0  0
  -29.4740    1.3967   31.4343 C   0  0  0  0  0  0  0  0  0  0  0  0
  -29.1255    0.8293   32.5415 C   0  0  0  0  0  0  0  0  0  0  0  0
  -30.5269    2.4560   31.4661 C   0  0  0  0  0  0  0  0  0  0  0  0
  -31.3571    2.5849   32.5516 C   0  0  0  0  0  0  0  0  0  0  0  0
  -29.7993    1.0960   33.7727 C   0  0  0  0  0  0  0  0  0  0  0  0
  -30.8816    2.0006   33.7773 C   0  0  0  0  0  0  0  0  0  0  0  0
  5  7  1  0
  7  8  1  0
 14 15  1  0
  6 16  1  0
  8  9  1  0
 16 17  2  0
 17 20  1  0
 20 21  2  0
 21 19  1  0
 19 18  2  0
 18 16  1  0
  1  2  2  0
  2  3  1  0
  3  4  2  0
  4  6  1  0
  6  5  2  0
  5  1  1  0
  9 10  2  0
 10 11  1  0
 11 12  2  0
 12 13  1  0
 13 14  2  0
 14  9  1  0
M  END

$$$$
