No_3115-gen_results/8p0m/2024-11-27-11-27-31/
     RDKit          3D

 35 37  0  0  0  0  0  0  0  0999 V2000
  -28.0162   -0.8135   28.8779 C   0  0  0  0  0  0  0  0  0  0  0  0
  -28.4690   -0.7850   29.8287 C   0  0  0  0  0  0  0  0  0  0  0  0
  -27.0871    0.2903   28.6377 C   0  0  0  0  0  0  0  0  0  0  0  0
  -26.2516    0.4114   27.4223 C   0  0  0  0  0  0  0  0  0  0  0  0
  -28.3913    0.1041   30.9805 C   0  0  0  0  0  0  0  0  0  0  0  0
  -27.5332    1.1666   30.7866 C   0  0  0  0  0  0  0  0  0  0  0  0
  -26.8281    1.2557   29.6454 C   0  0  0  0  0  0  0  0  0  0  0  0
  -25.1382    0.6746   27.2309 C   0  0  0  0  0  0  0  0  0  0  0  0
  -24.3035    1.0942   26.8058 C   0  0  0  0  0  0  0  0  0  0  0  0
  -22.9308    1.7087   26.7640 C   0  0  0  0  0  0  0  0  0  0  0  0
  -22.0281    1.6900   27.7630 C   0  0  0  0  0  0  0  0  0  0  0  0
  -20.7625    1.8327   27.3788 N   0  0  0  0  0  0  0  0  0  0  0  0
  -22.7042    2.5245   25.6667 C   0  0  0  0  0  0  0  0  0  0  0  0
  -22.2263    1.0174   28.9763 N   0  0  0  0  0  0  0  0  0  0  0  0
  -27.1427   -0.0124   26.2329 C   0  0  0  0  0  0  0  0  0  0  0  0
  -27.5631    1.1421   25.4476 C   0  0  0  0  0  0  0  0  0  0  0  0
  -28.8518    1.5743   25.6804 C   0  0  0  0  0  0  0  0  0  0  0  0
  -29.2701    2.6423   25.0088 C   0  0  0  0  0  0  0  0  0  0  0  0
  -30.5007    3.2743   25.2149 C   0  0  0  0  0  0  0  0  0  0  0  0
  -31.3723    2.6901   26.1107 C   0  0  0  0  0  0  0  0  0  0  0  0
  -30.9817    1.6273   26.8478 C   0  0  0  0  0  0  0  0  0  0  0  0
  -29.7549    1.0772   26.7028 C   0  0  0  0  0  0  0  0  0  0  0  0
  -27.4342    0.7273   23.9820 C   0  0  0  0  0  0  0  0  0  0  0  0
  -26.6179    2.4495   25.5387 C   0  0  0  0  0  0  0  0  0  0  0  0
  -29.5060   -1.9783   30.2329 C   0  0  0  0  0  0  0  0  0  0  0  0
  -30.6468   -1.8479   29.9041 O   0  0  0  0  0  0  0  0  0  0  0  0
  -29.0234   -3.0167   30.8014 O   0  0  0  0  0  0  0  0  0  0  0  0
  -21.6511   -0.1208   29.2277 C   0  0  0  0  0  0  0  0  0  0  0  0
  -22.2782   -0.8887   30.3800 C   0  0  0  0  0  0  0  0  0  0  0  0
  -22.9662   -0.0974   31.0998 C   0  0  0  0  0  0  0  0  0  0  0  0
  -23.8069   -0.7737   32.1572 C   0  0  0  0  0  0  0  0  0  0  0  0
  -24.5712   -0.1190   33.0504 C   0  0  0  0  0  0  0  0  0  0  0  0
  -24.9154    1.2876   32.7263 C   0  0  0  0  0  0  0  0  0  0  0  0
  -24.1185    1.9679   31.7123 C   0  0  0  0  0  0  0  0  0  0  0  0
  -23.2917    1.2286   30.9191 C   0  0  0  0  0  0  0  0  0  0  0  0
  3  4  1  0
  4  8  2  3
  8  9  1  0
  9 10  2  3
 10 11  1  0
 11 12  2  0
 10 13  1  0
 11 14  1  0
  4 15  1  0
 15 16  1  0
 16 17  1  0
 16 23  1  0
 16 24  1  0
  2 25  1  0
 25 26  2  0
 25 27  1  0
 14 28  1  0
 28 29  1  0
 29 30  1  0
 17 18  2  0
 18 19  1  0
 19 20  2  0
 20 21  1  0
 21 22  2  0
 22 17  1  0
 30 31  2  0
 31 32  1  0
 32 33  2  0
 33 34  1  0
 34 35  2  0
 35 30  1  0
  1  2  2  0
  2  5  1  0
  5  6  2  0
  6  7  1  0
  7  3  2  0
  3  1  1  0
M  END

$$$$
