No_3522-gen_results/8p0m/2024-11-27-11-27-31/
     RDKit          3D

 30 33  0  0  0  0  0  0  0  0999 V2000
  -28.0162   -0.8135   28.8779 C   0  0  0  0  0  0  0  0  0  0  0  0
  -28.4690   -0.7850   29.8287 C   0  0  0  0  0  0  0  0  0  0  0  0
  -28.1816    0.4277   28.1134 C   0  0  0  0  0  0  0  0  0  0  0  0
  -28.9841    1.4155   28.5154 C   0  0  0  0  0  0  0  0  0  0  0  0
  -29.3802    0.1384   30.4612 C   0  0  0  0  0  0  0  0  0  0  0  0
  -29.5415    1.2736   29.7242 C   0  0  0  0  0  0  0  0  0  0  0  0
  -27.5347    0.4526   26.9017 F   0  0  0  0  0  0  0  0  0  0  0  0
  -29.9753   -0.0857   31.8097 C   0  0  0  0  0  0  0  0  0  0  0  0
  -29.7952    0.8320   32.6805 C   0  0  0  0  0  0  0  0  0  0  0  0
  -28.8685    1.9180   32.4778 C   0  0  0  0  0  0  0  0  0  0  0  0
  -28.4051    2.5335   33.5261 C   0  0  0  0  0  0  0  0  0  0  0  0
  -29.0258    2.3695   34.8271 C   0  0  0  0  0  0  0  0  0  0  0  0
  -29.8948    1.3788   35.0087 C   0  0  0  0  0  0  0  0  0  0  0  0
  -30.2220    0.5668   33.9908 C   0  0  0  0  0  0  0  0  0  0  0  0
  -31.4193   -0.5864   31.5647 C   0  0  0  0  0  0  0  0  0  0  0  0
  -32.3860    0.2081   31.3831 C   0  0  0  0  0  0  0  0  0  0  0  0
  -33.4649    0.1457   31.1677 C   0  0  0  0  0  0  0  0  0  0  0  0
  -34.4300    1.2275   30.8733 C   0  0  0  0  0  0  0  0  0  0  0  0
  -33.7731    2.4472   30.9727 C   0  0  0  0  0  0  0  0  0  0  0  0
  -32.5418    2.7230   31.2846 C   0  0  0  0  0  0  0  0  0  0  0  0
  -31.7777    1.7061   31.5523 C   0  0  0  0  0  0  0  0  0  0  0  0
  -31.6320   -2.0090   31.6085 C   0  0  0  0  0  0  0  0  0  0  0  0
  -30.7902   -2.9510   31.4342 C   0  0  0  0  0  0  0  0  0  0  0  0
  -31.0738   -4.3259   31.4179 C   0  0  0  0  0  0  0  0  0  0  0  0
  -30.0824   -5.3123   31.1270 C   0  0  0  0  0  0  0  0  0  0  0  0
  -30.3623   -6.6075   31.0217 C   0  0  0  0  0  0  0  0  0  0  0  0
  -31.6516   -7.0975   31.1110 C   0  0  0  0  0  0  0  0  0  0  0  0
  -32.4971   -6.2929   31.1463 C   0  0  0  0  0  0  0  0  0  0  0  0
  -32.4427   -4.9581   31.4384 C   0  0  0  0  0  0  0  0  0  0  0  0
  -28.2723   -4.6697   31.1053 Br  0  0  0  0  0  0  0  0  0  0  0  0
  3  7  1  0
  5  8  1  0
  8 15  1  0
 15 22  1  0
 22 23  2  3
 23 24  1  0
 25 30  1  0
 15 16  1  0
  8  9  1  0
  9 10  2  0
 10 11  1  0
 11 12  2  0
 12 13  1  0
 13 14  2  0
 14  9  1  0
 24 25  2  0
 25 26  1  0
 26 27  2  0
 27 28  1  0
 28 29  2  0
 29 24  1  0
  1  2  2  0
  2  5  1  0
  5  6  2  0
  6  4  1  0
  4  3  2  0
  3  1  1  0
 16 17  2  0
 17 18  1  0
 18 19  2  0
 19 20  1  0
 20 21  2  0
 21 16  1  0
M  END

$$$$
