No_3788-gen_results/8p0m/2024-11-27-11-27-31/
     RDKit          3D

 33 35  0  0  0  0  0  0  0  0999 V2000
  -28.0544   -1.0498   28.7246 N   0  0  0  0  0  0  0  0  0  0  0  0
  -27.7460   -0.0733   29.0098 C   0  0  0  0  0  0  0  0  0  0  0  0
  -27.1737    0.7565   28.1070 C   0  0  0  0  0  0  0  0  0  0  0  0
  -26.5770    2.0960   28.3920 C   0  0  0  0  0  0  0  0  0  0  0  0
  -26.5762    2.4337   29.7570 C   0  0  0  0  0  0  0  0  0  0  0  0
  -27.0953    1.5387   30.7175 C   0  0  0  0  0  0  0  0  0  0  0  0
  -27.5988    0.3077   30.4002 C   0  0  0  0  0  0  0  0  0  0  0  0
  -27.7930   -2.1260   29.6217 C   0  0  0  0  0  0  0  0  0  0  0  0
  -27.8522   -1.9423   30.9770 N   0  0  0  0  0  0  0  0  0  0  0  0
  -27.5772   -0.6577   31.3608 C   0  0  0  0  0  0  0  0  0  0  0  0
  -27.1747    0.5357   26.6407 C   0  0  0  0  0  0  0  0  0  0  0  0
  -28.1816    1.0066   25.5919 P   0  0  0  0  0  0  0  0  0  0  0  0
  -29.1469    1.5705   26.0362 O   0  0  0  0  0  0  0  0  0  0  0  0
  -27.2859    2.0435   24.8031 O   0  0  0  0  0  0  0  0  0  0  0  0
  -28.4232   -0.0616   24.5294 O   0  0  0  0  0  0  0  0  0  0  0  0
  -26.0716    3.7688   30.1868 C   0  0  0  0  0  0  0  0  0  0  0  0
  -25.4860    3.8881   31.1711 O   0  0  0  0  0  0  0  0  0  0  0  0
  -26.1579    4.7371   29.3226 O   0  0  0  0  0  0  0  0  0  0  0  0
  -26.0934    5.9896   29.7352 C   0  0  0  0  0  0  0  0  0  0  0  0
  -26.2064    6.3385   30.8504 C   0  0  0  0  0  0  0  0  0  0  0  0
  -26.1758    7.7249   31.3452 C   0  0  0  0  0  0  0  0  0  0  0  0
  -26.0068    8.6976   30.2882 C   0  0  0  0  0  0  0  0  0  0  0  0
  -25.9397    6.9944   28.5899 C   0  0  0  0  0  0  0  0  0  0  0  0
  -25.8547    8.3343   28.9636 C   0  0  0  0  0  0  0  0  0  0  0  0
  -25.7047    6.6236   27.2238 C   0  0  0  0  0  0  0  0  0  0  0  0
  -25.5339    7.5266   26.4209 F   0  0  0  0  0  0  0  0  0  0  0  0
  -24.5581    5.7766   27.1550 F   0  0  0  0  0  0  0  0  0  0  0  0
  -26.7574    5.8531   26.7695 F   0  0  0  0  0  0  0  0  0  0  0  0
  -25.8973   10.0488   30.6554 N   0  0  0  0  0  0  0  0  0  0  0  0
  -25.6661   10.5303   31.6327 C   0  0  0  0  0  0  0  0  0  0  0  0
  -25.6275   11.9974   31.8075 C   0  0  0  0  0  0  0  0  0  0  0  0
  -25.8544   12.7383   30.7074 C   0  0  0  0  0  0  0  0  0  0  0  0
  -26.0865   12.1386   29.4662 C   0  0  0  0  0  0  0  0  0  0  0  0
  3 11  1  0
 11 12  1  0
 12 13  1  0
 12 14  2  0
 12 15  1  0
  5 16  1  0
 16 17  2  0
 16 18  1  0
 18 19  1  0
 23 25  1  0
 25 26  1  0
 25 27  1  0
 25 28  1  0
 22 29  1  0
 29 30  2  3
 30 31  1  0
 31 32  2  3
 32 33  1  0
  2  3  1  0
  3  4  2  0
  4  5  1  0
  5  6  2  0
  6  7  1  0
  1  2  2  0
  2  7  1  0
  7 10  2  0
 10  9  1  0
  9  8  2  0
  8  1  1  0
 19 20  2  0
 20 21  1  0
 21 22  2  0
 22 24  1  0
 24 23  2  0
 23 19  1  0
M  END

$$$$
