No_3349-gen_results/8p0m/2024-11-27-11-27-31/
     RDKit          3D

 11 11  0  0  0  0  0  0  0  0999 V2000
  -28.0162   -0.8135   28.8779 C   0  0  0  0  0  0  0  0  0  0  0  0
  -27.0636   -0.1189   28.6079 C   0  0  0  0  0  0  0  0  0  0  0  0
  -26.9716    0.7139   27.5060 C   0  0  0  0  0  0  0  0  0  0  0  0
  -28.1053    0.7744   26.6421 C   0  0  0  0  0  0  0  0  0  0  0  0
  -29.2041    0.1179   27.0477 C   0  0  0  0  0  0  0  0  0  0  0  0
  -29.2127   -0.6088   28.1281 C   0  0  0  0  0  0  0  0  0  0  0  0
  -30.3709    0.2326   26.1381 C   0  0  0  0  0  0  0  0  0  0  0  0
  -30.3086    0.1051   24.9412 O   0  0  0  0  0  0  0  0  0  0  0  0
  -31.6080   -0.1807   26.7148 N   0  0  0  0  0  0  0  0  0  0  0  0
  -32.7417   -0.3463   25.8918 C   0  0  0  0  0  0  0  0  0  0  0  0
  -25.4946    1.5208   27.0485 Cl  0  0  0  0  0  0  0  0  0  0  0  0
  5  7  1  0
  7  8  2  0
  7  9  1  0
  9 10  1  0
  3 11  1  0
  1  2  2  0
  2  3  1  0
  3  4  2  0
  4  5  1  0
  5  6  2  0
  6  1  1  0
M  END

$$$$
