No_3923-gen_results/8p0m/2024-11-27-11-27-31/
     RDKit          3D

 10 10  0  0  0  0  0  0  0  0999 V2000
  -28.0727   -1.2542   28.5316 F   0  0  0  0  0  0  0  0  0  0  0  0
  -27.3591   -0.3792   28.7224 C   0  0  0  0  0  0  0  0  0  0  0  0
  -26.8100    0.1885   27.6513 C   0  0  0  0  0  0  0  0  0  0  0  0
  -27.4896    0.3508   26.4426 C   0  0  0  0  0  0  0  0  0  0  0  0
  -26.8425    0.5635   25.2793 C   0  0  0  0  0  0  0  0  0  0  0  0
  -25.4294    0.8765   25.2868 C   0  0  0  0  0  0  0  0  0  0  0  0
  -24.6931    0.8626   26.4303 C   0  0  0  0  0  0  0  0  0  0  0  0
  -23.3403    1.2212   26.5067 C   0  0  0  0  0  0  0  0  0  0  0  0
  -25.3545    0.4797   27.5613 C   0  0  0  0  0  0  0  0  0  0  0  0
  -28.0159    0.6466   29.4887 F   0  0  0  0  0  0  0  0  0  0  0  0
  1  2  1  0
  7  8  1  0
  2 10  1  0
  2  3  1  0
  3  4  2  0
  4  5  1  0
  5  6  2  0
  6  7  1  0
  7  9  2  0
  9  3  1  0
M  END

$$$$
