No_3195-gen_results/8p0m/2024-11-27-11-27-31/
     RDKit          3D

 21 24  0  0  0  0  0  0  0  0999 V2000
  -28.0162   -0.8135   28.8779 C   0  0  0  0  0  0  0  0  0  0  0  0
  -27.0636   -0.1189   28.6079 C   0  0  0  0  0  0  0  0  0  0  0  0
  -25.7647   -0.3897   29.0360 C   0  0  0  0  0  0  0  0  0  0  0  0
  -24.5516    0.4058   28.7646 C   0  0  0  0  0  0  0  0  0  0  0  0
  -24.6957    1.4480   27.7988 C   0  0  0  0  0  0  0  0  0  0  0  0
  -25.9755    1.7250   27.3077 C   0  0  0  0  0  0  0  0  0  0  0  0
  -27.0718    1.0134   27.6535 C   0  0  0  0  0  0  0  0  0  0  0  0
  -27.9653   -1.6216   30.1356 C   0  0  0  0  0  0  0  0  0  0  0  0
  -26.6745   -2.1506   30.4964 C   0  0  0  0  0  0  0  0  0  0  0  0
  -25.5535   -1.4129   30.0823 C   0  0  0  0  0  0  0  0  0  0  0  0
  -23.4134    1.8436   27.3104 C   0  0  0  0  0  0  0  0  0  0  0  0
  -22.2257    1.5507   27.8559 N   0  0  0  0  0  0  0  0  0  0  0  0
  -23.2375    0.0178   29.1678 C   0  0  0  0  0  0  0  0  0  0  0  0
  -22.0775    0.6798   28.7737 C   0  0  0  0  0  0  0  0  0  0  0  0
  -28.3789    1.3478   27.0699 C   0  0  0  0  0  0  0  0  0  0  0  0
  -28.9219    1.0623   26.2482 C   0  0  0  0  0  0  0  0  0  0  0  0
  -30.2570    1.2875   25.8475 C   0  0  0  0  0  0  0  0  0  0  0  0
  -29.0723    2.3625   27.9794 C   0  0  0  0  0  0  0  0  0  0  0  0
  -30.3615    2.7791   27.6862 C   0  0  0  0  0  0  0  0  0  0  0  0
  -30.9292    2.2612   26.5388 C   0  0  0  0  0  0  0  0  0  0  0  0
  -26.0506    2.9069   26.3448 C   0  0  0  0  0  0  0  0  0  0  0  0
  7 15  1  0
  6 21  1  0
 15 16  2  0
 16 17  1  0
 17 20  2  0
 20 19  1  0
 19 18  2  0
 18 15  1  0
  3  4  1  0
  5  6  1  0
  6  7  2  0
  7  2  1  0
  1  2  2  0
  2  3  1  0
  3 10  2  0
 10  9  1  0
  9  8  2  0
  8  1  1  0
  4  5  2  0
  5 11  1  0
 11 12  2  0
 12 14  1  0
 14 13  2  0
 13  4  1  0
M  END

$$$$
