No_3508-gen_results/8p0m/2024-11-27-11-27-31/
     RDKit          3D

 30 34  0  0  0  0  0  0  0  0999 V2000
  -28.0162   -0.8135   28.8779 C   0  0  0  0  0  0  0  0  0  0  0  0
  -27.0636   -0.1189   28.6079 C   0  0  0  0  0  0  0  0  0  0  0  0
  -25.7647   -0.3897   29.0360 C   0  0  0  0  0  0  0  0  0  0  0  0
  -25.4887   -1.1536   29.7171 C   0  0  0  0  0  0  0  0  0  0  0  0
  -27.7606   -1.9034   29.8572 C   0  0  0  0  0  0  0  0  0  0  0  0
  -26.4781   -2.1057   30.2362 C   0  0  0  0  0  0  0  0  0  0  0  0
  -28.7117   -2.7607   30.2899 N   0  0  0  0  0  0  0  0  0  0  0  0
  -29.9110   -2.4398   30.4791 C   0  0  0  0  0  0  0  0  0  0  0  0
  -30.3496   -1.3840   30.4019 O   0  0  0  0  0  0  0  0  0  0  0  0
  -30.7834   -3.6794   30.8896 C   0  0  0  0  0  0  0  0  0  0  0  0
  -30.3228   -4.6945   30.8881 N   0  0  0  0  0  0  0  0  0  0  0  0
  -28.4212   -4.1874   30.5928 C   0  0  0  0  0  0  0  0  0  0  0  0
  -31.2317   -5.8480   31.2219 C   0  0  0  0  0  0  0  0  0  0  0  0
  -29.0548   -5.1246   30.8420 C   0  0  0  0  0  0  0  0  0  0  0  0
  -31.0426   -6.7913   32.1724 C   0  0  0  0  0  0  0  0  0  0  0  0
  -30.4087   -6.2937   33.2288 C   0  0  0  0  0  0  0  0  0  0  0  0
  -30.3319   -4.8923   33.4936 C   0  0  0  0  0  0  0  0  0  0  0  0
  -30.8369   -4.5901   34.6825 C   0  0  0  0  0  0  0  0  0  0  0  0
  -30.7309   -3.1992   35.0375 C   0  0  0  0  0  0  0  0  0  0  0  0
  -30.1503   -2.2004   34.2051 C   0  0  0  0  0  0  0  0  0  0  0  0
  -29.4258   -2.7040   33.1051 C   0  0  0  0  0  0  0  0  0  0  0  0
  -29.5598   -3.9725   32.7903 C   0  0  0  0  0  0  0  0  0  0  0  0
  -28.1414   -4.5046   32.8034 C   0  0  0  0  0  0  0  0  0  0  0  0
  -27.3221   -4.1605   31.6799 O   0  0  0  0  0  0  0  0  0  0  0  0
  -32.0564   -3.3065   30.9264 O   0  0  0  0  0  0  0  0  0  0  0  0
  -29.7994   -7.2145   34.2396 C   0  0  0  0  0  0  0  0  0  0  0  0
  -29.6074   -8.3610   33.9886 O   0  0  0  0  0  0  0  0  0  0  0  0
  -29.5414   -6.7988   35.5686 N   0  0  0  0  0  0  0  0  0  0  0  0
  -29.0850   -7.1404   36.4473 C   0  0  0  0  0  0  0  0  0  0  0  0
  -30.0564   -5.2087   35.6731 C   0  0  0  0  0  0  0  0  0  0  0  0
  5  7  1  0
  7  8  1  0
  8  9  2  0
  8 10  1  0
 10 11  1  0
  7 12  1  0
 11 13  1  0
 11 14  1  0
 12 14  1  0
 13 15  1  0
 15 16  2  3
 16 17  1  0
 22 23  1  0
 12 24  1  0
 23 24  1  0
 10 25  2  0
 16 26  1  0
 26 27  2  0
 26 28  1  0
 28 29  1  0
 18 30  1  0
 28 30  1  0
 17 18  2  0
 18 19  1  0
 19 20  2  0
 20 21  1  0
 21 22  2  0
 22 17  1  0
  1  2  2  0
  2  3  1  0
  3  4  2  0
  4  6  1  0
  6  5  2  0
  5  1  1  0
M  END

$$$$
