No_3724-gen_results/8p0m/2024-11-27-11-27-31/
     RDKit          3D

 16 17  0  0  0  0  0  0  0  0999 V2000
  -28.0162   -0.8135   28.8779 C   0  0  0  0  0  0  0  0  0  0  0  0
  -28.4690   -0.7850   29.8287 C   0  0  0  0  0  0  0  0  0  0  0  0
  -26.5455   -0.8762   28.8500 C   0  0  0  0  0  0  0  0  0  0  0  0
  -25.8041   -1.0324   30.0571 C   0  0  0  0  0  0  0  0  0  0  0  0
  -27.9437   -0.9869   31.2075 C   0  0  0  0  0  0  0  0  0  0  0  0
  -26.5825   -1.0386   31.2231 C   0  0  0  0  0  0  0  0  0  0  0  0
  -24.3810   -1.1082   30.0855 C   0  0  0  0  0  0  0  0  0  0  0  0
  -23.6421   -1.1177   29.0486 C   0  0  0  0  0  0  0  0  0  0  0  0
  -22.1825   -0.9779   29.1035 C   0  0  0  0  0  0  0  0  0  0  0  0
  -23.6394   -0.1093   30.9364 C   0  0  0  0  0  0  0  0  0  0  0  0
  -24.2238    0.2128   32.1769 N   0  0  0  0  0  0  0  0  0  0  0  0
  -22.8339    0.8434   30.4499 C   0  0  0  0  0  0  0  0  0  0  0  0
  -21.6692    0.0208   29.7205 C   0  0  0  0  0  0  0  0  0  0  0  0
  -30.0927   -0.7313   29.8763 C   0  0  0  0  0  0  0  0  0  0  0  0
  -30.6329    0.2434   30.4673 O   0  0  0  0  0  0  0  0  0  0  0  0
  -30.7062   -1.6009   29.2724 O   0  0  0  0  0  0  0  0  0  0  0  0
  4  7  1  0
 10 11  1  0
  2 14  1  0
 14 15  2  0
 14 16  1  0
  7  8  2  0
  8  9  1  0
  9 13  2  0
 13 12  1  0
 12 10  2  0
 10  7  1  0
  1  2  2  0
  2  5  1  0
  5  6  2  0
  6  4  1  0
  4  3  2  0
  3  1  1  0
M  END

$$$$
