No_3131-gen_results/8p0m/2024-11-27-11-27-31/
     RDKit          3D

 23 26  0  0  0  0  0  0  0  0999 V2000
  -28.0162   -0.8135   28.8779 C   0  0  0  0  0  0  0  0  0  0  0  0
  -28.4690   -0.7850   29.8287 C   0  0  0  0  0  0  0  0  0  0  0  0
  -27.1356    0.2359   28.5352 C   0  0  0  0  0  0  0  0  0  0  0  0
  -26.8745    1.2825   29.3982 C   0  0  0  0  0  0  0  0  0  0  0  0
  -28.3613    0.1987   30.9244 C   0  0  0  0  0  0  0  0  0  0  0  0
  -27.5277    1.2234   30.6356 C   0  0  0  0  0  0  0  0  0  0  0  0
  -26.3987    0.2949   27.2279 C   0  0  0  0  0  0  0  0  0  0  0  0
  -25.8882    1.5487   26.8334 C   0  0  0  0  0  0  0  0  0  0  0  0
  -25.0305    1.5971   25.7327 C   0  0  0  0  0  0  0  0  0  0  0  0
  -24.2070    2.7467   25.5869 C   0  0  0  0  0  0  0  0  0  0  0  0
  -24.4732    3.8820   26.4616 C   0  0  0  0  0  0  0  0  0  0  0  0
  -25.3348    3.7814   27.5145 C   0  0  0  0  0  0  0  0  0  0  0  0
  -25.9782    2.5917   27.7706 C   0  0  0  0  0  0  0  0  0  0  0  0
  -26.7492    2.5162   28.9115 N   0  0  0  0  0  0  0  0  0  0  0  0
  -26.9993    3.7314   29.6668 C   0  0  0  0  0  0  0  0  0  0  0  0
  -26.2242    4.0375   30.7384 C   0  0  0  0  0  0  0  0  0  0  0  0
  -26.7724    4.4938   31.7982 C   0  0  0  0  0  0  0  0  0  0  0  0
  -27.9952    5.1762   31.8092 C   0  0  0  0  0  0  0  0  0  0  0  0
  -27.2412    4.9188   28.7983 C   0  0  0  0  0  0  0  0  0  0  0  0
  -28.8411    4.8077   30.8783 C   0  0  0  0  0  0  0  0  0  0  0  0
  -28.6166    5.3908   29.4945 C   0  0  0  0  0  0  0  0  0  0  0  0
  -27.3627    4.6287   27.4184 C   0  0  0  0  0  0  0  0  0  0  0  0
  -26.2285    4.9976   27.3710 O   0  0  0  0  0  0  0  0  0  0  0  0
  3  7  1  0
  4 14  1  0
 13 14  1  0
 14 15  1  0
 15 16  1  0
 16 17  2  0
 17 18  1  0
 15 19  1  0
 18 20  2  0
 19 21  1  0
 20 21  1  0
 19 22  1  0
 22 23  1  0
  7  8  1  0
  8  9  2  0
  9 10  1  0
 10 11  2  0
 11 12  1  0
 12 13  2  0
 13  8  1  0
  1  2  2  0
  2  5  1  0
  5  6  2  0
  6  4  1  0
  4  3  2  0
  3  1  1  0
M  END

$$$$
