No_364-gen_results/8p0m/2024-11-27-11-27-31/
     RDKit          3D

 11 12  0  0  0  0  0  0  0  0999 V2000
  -28.0162   -0.8135   28.8779 C   0  0  0  0  0  0  0  0  0  0  0  0
  -27.1876   -0.3590   28.4524 N   0  0  0  0  0  0  0  0  0  0  0  0
  -29.1992    0.0398   28.9632 C   0  0  0  0  0  0  0  0  0  0  0  0
  -27.3288    0.8806   27.8664 C   0  0  0  0  0  0  0  0  0  0  0  0
  -28.6444    1.1339   28.1804 C   0  0  0  0  0  0  0  0  0  0  0  0
  -26.3441    1.6624   27.1448 C   0  0  0  0  0  0  0  0  0  0  0  0
  -25.5007    2.3601   27.6789 C   0  0  0  0  0  0  0  0  0  0  0  0
  -24.3901    2.7922   27.4065 C   0  0  0  0  0  0  0  0  0  0  0  0
  -23.5220    2.2660   26.8520 C   0  0  0  0  0  0  0  0  0  0  0  0
  -24.1199    1.1579   25.9720 C   0  0  0  0  0  0  0  0  0  0  0  0
  -25.5232    0.7488   26.1775 C   0  0  0  0  0  0  0  0  0  0  0  0
  1  2  1  0
  1  3  2  0
  2  4  2  0
  3  5  1  0
  4  5  1  0
  4  6  1  0
  6  7  2  0
  7  8  1  0
  8  9  2  0
  9 10  1  0
 10 11  2  0
 11  6  1  0
M  END

$$$$
