No_369-gen_results/8p0m/2024-11-27-11-27-31/
     RDKit          3D

 27 28  0  0  0  0  0  0  0  0999 V2000
  -28.0162   -0.8135   28.8779 C   0  0  0  0  0  0  0  0  0  0  0  0
  -28.4690   -0.7850   29.8287 C   0  0  0  0  0  0  0  0  0  0  0  0
  -26.5455   -0.8762   28.8500 C   0  0  0  0  0  0  0  0  0  0  0  0
  -25.8974   -0.8267   29.8894 C   0  0  0  0  0  0  0  0  0  0  0  0
  -26.4945   -0.7976   31.1740 C   0  0  0  0  0  0  0  0  0  0  0  0
  -27.8589   -0.7585   31.1651 C   0  0  0  0  0  0  0  0  0  0  0  0
  -24.3633   -0.8582   29.9307 C   0  0  0  0  0  0  0  0  0  0  0  0
  -23.7449    0.4534   29.9553 C   0  0  0  0  0  0  0  0  0  0  0  0
  -23.3689    1.0344   28.7772 C   0  0  0  0  0  0  0  0  0  0  0  0
  -23.9958    2.1466   28.1657 C   0  0  0  0  0  0  0  0  0  0  0  0
  -24.8686    2.8570   28.8526 C   0  0  0  0  0  0  0  0  0  0  0  0
  -25.0770    2.5012   30.2591 C   0  0  0  0  0  0  0  0  0  0  0  0
  -24.9082    1.4087   30.6311 C   0  0  0  0  0  0  0  0  0  0  0  0
  -23.5826    2.5252   26.8139 C   0  0  0  0  0  0  0  0  0  0  0  0
  -25.8656   -0.8574   27.5625 N   0  0  0  0  0  0  0  0  0  0  0  0
  -22.7281    1.8065   26.2437 O   0  0  0  0  0  0  0  0  0  0  0  0
  -24.3326    3.3983   26.1385 O   0  0  0  0  0  0  0  0  0  0  0  0
  -22.5655    0.5087   30.9986 C   0  0  0  0  0  0  0  0  0  0  0  0
  -26.0884    3.4691   30.9308 C   0  0  0  0  0  0  0  0  0  0  0  0
  -26.6390    4.2611   30.5540 O   0  0  0  0  0  0  0  0  0  0  0  0
  -26.1651    3.0992   32.2402 O   0  0  0  0  0  0  0  0  0  0  0  0
  -30.0772   -0.7378   29.9421 C   0  0  0  0  0  0  0  0  0  0  0  0
  -30.6673    0.2288   30.6253 O   0  0  0  0  0  0  0  0  0  0  0  0
  -30.7086   -1.4830   29.2740 O   0  0  0  0  0  0  0  0  0  0  0  0
  -26.1592   -0.1383   26.4681 C   0  0  0  0  0  0  0  0  0  0  0  0
  -26.8941    0.8453   26.2554 N   0  0  0  0  0  0  0  0  0  0  0  0
  -27.0407    1.4603   25.0937 C   0  0  0  0  0  0  0  0  0  0  0  0
  4  7  1  0
  7  8  1  0
  8  9  1  0
  9 10  1  0
 10 11  1  0
  8 13  1  0
 12 13  1  0
 10 14  1  0
  3 15  1  0
 14 16  2  0
 14 17  1  0
  8 18  1  0
 12 19  1  0
 19 20  1  0
 19 21  2  0
  2 22  1  0
 22 23  1  0
 22 24  2  0
 15 25  1  0
 25 26  2  3
 26 27  1  0
 11 12  1  0
  1  2  2  0
  2  6  1  0
  6  5  2  0
  5  4  1  0
  4  3  2  0
  3  1  1  0
M  END

$$$$
