No_3944-gen_results/8p0m/2024-11-27-11-27-31/
     RDKit          3D

 15 15  0  0  0  0  0  0  0  0999 V2000
  -28.0162   -0.8135   28.8779 C   0  0  0  0  0  0  0  0  0  0  0  0
  -27.0636   -0.1190   28.6079 C   0  0  0  0  0  0  0  0  0  0  0  0
  -26.9716    0.7139   27.5060 C   0  0  0  0  0  0  0  0  0  0  0  0
  -28.1053    0.7744   26.6421 C   0  0  0  0  0  0  0  0  0  0  0  0
  -29.2041    0.1179   27.0477 C   0  0  0  0  0  0  0  0  0  0  0  0
  -29.2127   -0.6088   28.1281 C   0  0  0  0  0  0  0  0  0  0  0  0
  -30.3709    0.2326   26.1381 C   0  0  0  0  0  0  0  0  0  0  0  0
  -30.9633    1.2270   26.0808 O   0  0  0  0  0  0  0  0  0  0  0  0
  -30.6952   -0.8526   25.4944 O   0  0  0  0  0  0  0  0  0  0  0  0
  -25.6680    1.4157   27.1365 C   0  0  0  0  0  0  0  0  0  0  0  0
  -25.1932    2.4023   28.0752 C   0  0  0  0  0  0  0  0  0  0  0  0
  -25.5998    2.7149   29.0110 C   0  0  0  0  0  0  0  0  0  0  0  0
  -25.9937    3.5700   29.7543 C   0  0  0  0  0  0  0  0  0  0  0  0
  -25.1439    4.4512   29.8781 F   0  0  0  0  0  0  0  0  0  0  0  0
  -27.0587    3.7461   30.2714 F   0  0  0  0  0  0  0  0  0  0  0  0
  5  7  1  0
  7  8  1  0
  7  9  2  0
  3 10  1  0
 10 11  1  0
 11 12  2  3
 12 13  1  0
 13 14  1  0
 13 15  1  0
  1  2  2  0
  2  3  1  0
  3  4  2  0
  4  5  1  0
  5  6  2  0
  6  1  1  0
M  END

$$$$
