No_3069-gen_results/8p0m/2024-11-27-11-27-31/
     RDKit          3D

 21 23  0  0  0  0  0  0  0  0999 V2000
  -28.0162   -0.8135   28.8779 C   0  0  0  0  0  0  0  0  0  0  0  0
  -27.0636   -0.1189   28.6079 C   0  0  0  0  0  0  0  0  0  0  0  0
  -26.9716    0.7139   27.5060 C   0  0  0  0  0  0  0  0  0  0  0  0
  -28.1053    0.7744   26.6421 C   0  0  0  0  0  0  0  0  0  0  0  0
  -29.2041    0.1179   27.0477 C   0  0  0  0  0  0  0  0  0  0  0  0
  -29.2127   -0.6088   28.1281 C   0  0  0  0  0  0  0  0  0  0  0  0
  -25.7106    1.4519   27.1380 C   0  0  0  0  0  0  0  0  0  0  0  0
  -24.6052    0.9253   27.6902 C   0  0  0  0  0  0  0  0  0  0  0  0
  -24.6227    0.0600   28.8225 C   0  0  0  0  0  0  0  0  0  0  0  0
  -25.7269   -0.4734   29.2409 C   0  0  0  0  0  0  0  0  0  0  0  0
  -23.2726    1.6786   27.4284 C   0  0  0  0  0  0  0  0  0  0  0  0
  -23.2949    2.5031   26.5041 F   0  0  0  0  0  0  0  0  0  0  0  0
  -22.0770    1.3574   28.1136 C   0  0  0  0  0  0  0  0  0  0  0  0
  -22.0542    0.4283   29.0374 N   0  0  0  0  0  0  0  0  0  0  0  0
  -23.3025   -0.2533   29.5000 C   0  0  0  0  0  0  0  0  0  0  0  0
  -25.6733   -1.5434   29.9471 O   0  0  0  0  0  0  0  0  0  0  0  0
  -30.4518    0.2875   26.2406 C   0  0  0  0  0  0  0  0  0  0  0  0
  -30.5619   -0.4148   25.1483 N   0  0  0  0  0  0  0  0  0  0  0  0
  -31.4091    0.9509   26.6160 O   0  0  0  0  0  0  0  0  0  0  0  0
  -29.5574   -1.3021   24.6265 C   0  0  0  0  0  0  0  0  0  0  0  0
  -31.7827   -0.3824   24.2860 C   0  0  0  0  0  0  0  0  0  0  0  0
  3  7  1  0
  2 10  1  0
  9 10  1  0
 11 12  1  0
 10 16  2  0
  5 17  1  0
 17 18  1  0
 17 19  2  0
 18 20  1  0
 18 21  1  0
  7  8  1  0
  8  9  2  0
  9 15  1  0
 15 14  2  0
 14 13  1  0
 13 11  2  0
 11  8  1  0
  1  2  2  0
  2  3  1  0
  3  4  2  0
  4  5  1  0
  5  6  2  0
  6  1  1  0
M  END

$$$$
