No_3216-gen_results/8p0m/2024-11-27-11-27-31/
     RDKit          3D

 13 14  0  0  0  0  0  0  0  0999 V2000
  -28.0162   -0.8135   28.8779 C   0  0  0  0  0  0  0  0  0  0  0  0
  -27.0636   -0.1190   28.6079 C   0  0  0  0  0  0  0  0  0  0  0  0
  -25.7923   -0.4302   29.0761 C   0  0  0  0  0  0  0  0  0  0  0  0
  -25.5314   -1.5876   29.6105 C   0  0  0  0  0  0  0  0  0  0  0  0
  -26.6366   -2.4336   29.9654 C   0  0  0  0  0  0  0  0  0  0  0  0
  -27.8411   -2.0285   29.6196 C   0  0  0  0  0  0  0  0  0  0  0  0
  -26.9598    1.2190   27.8485 C   0  0  0  0  0  0  0  0  0  0  0  0
  -26.0141    1.7224   27.3946 C   0  0  0  0  0  0  0  0  0  0  0  0
  -24.6349    1.2984   27.9019 C   0  0  0  0  0  0  0  0  0  0  0  0
  -24.4564    0.4897   28.6840 C   0  0  0  0  0  0  0  0  0  0  0  0
  -23.5861    2.3397   27.4909 C   0  0  0  0  0  0  0  0  0  0  0  0
  -22.3860    2.1077   28.0139 N   0  0  0  0  0  0  0  0  0  0  0  0
  -23.7770    3.2204   26.6516 O   0  0  0  0  0  0  0  0  0  0  0  0
  9 11  1  0
 11 12  1  0
 11 13  2  0
  1  2  2  0
  3  4  2  0
  4  5  1  0
  5  6  2  0
  6  1  1  0
  2  3  1  0
  3 10  1  0
 10  9  2  0
  9  8  1  0
  8  7  2  0
  7  2  1  0
M  END

$$$$
