No_3917-gen_results/8p0m/2024-11-27-11-27-31/
     RDKit          3D

 25 26  0  0  0  0  0  0  0  0999 V2000
  -28.0162   -0.8135   28.8779 C   0  0  0  0  0  0  0  0  0  0  0  0
  -27.0636   -0.1189   28.6079 C   0  0  0  0  0  0  0  0  0  0  0  0
  -26.9716    0.7139   27.5060 C   0  0  0  0  0  0  0  0  0  0  0  0
  -28.1053    0.7744   26.6421 C   0  0  0  0  0  0  0  0  0  0  0  0
  -29.2041    0.1179   27.0477 C   0  0  0  0  0  0  0  0  0  0  0  0
  -29.2127   -0.6088   28.1281 C   0  0  0  0  0  0  0  0  0  0  0  0
  -30.3709    0.2326   26.1381 C   0  0  0  0  0  0  0  0  0  0  0  0
  -30.9633    1.2269   26.0808 O   0  0  0  0  0  0  0  0  0  0  0  0
  -30.5064   -0.7464   25.2086 O   0  0  0  0  0  0  0  0  0  0  0  0
  -25.6697    1.4154   27.1299 C   0  0  0  0  0  0  0  0  0  0  0  0
  -24.5484    1.1080   27.7496 C   0  0  0  0  0  0  0  0  0  0  0  0
  -23.3220    1.8494   27.3844 C   0  0  0  0  0  0  0  0  0  0  0  0
  -23.3902    2.6639   26.2459 C   0  0  0  0  0  0  0  0  0  0  0  0
  -25.5577    2.3146   26.0587 C   0  0  0  0  0  0  0  0  0  0  0  0
  -24.5100    2.9974   25.6624 C   0  0  0  0  0  0  0  0  0  0  0  0
  -22.0287    1.5865   28.0510 C   0  0  0  0  0  0  0  0  0  0  0  0
  -22.0408    0.9474   29.1967 N   0  0  0  0  0  0  0  0  0  0  0  0
  -20.9666    1.9683   27.5471 O   0  0  0  0  0  0  0  0  0  0  0  0
  -27.8670   -1.6718   30.1190 C   0  0  0  0  0  0  0  0  0  0  0  0
  -26.9184   -2.4159   30.2604 O   0  0  0  0  0  0  0  0  0  0  0  0
  -28.8836   -1.7727   30.9036 O   0  0  0  0  0  0  0  0  0  0  0  0
  -22.2581   -0.3567   29.4926 C   0  0  0  0  0  0  0  0  0  0  0  0
  -23.0483   -0.7065   30.6890 C   0  0  0  0  0  0  0  0  0  0  0  0
  -22.9958   -0.0041   31.7811 C   0  0  0  0  0  0  0  0  0  0  0  0
  -23.9824   -0.2792   32.8482 C   0  0  0  0  0  0  0  0  0  0  0  0
  5  7  1  0
  7  8  2  0
  7  9  1  0
  3 10  1  0
 12 16  1  0
 16 17  1  0
 16 18  2  0
  1 19  1  0
 19 20  2  0
 19 21  1  0
 17 22  1  0
 22 23  1  0
 23 24  2  3
 24 25  1  0
  1  2  2  0
  2  3  1  0
  3  4  2  0
  4  5  1  0
  5  6  2  0
  6  1  1  0
 10 11  2  0
 11 12  1  0
 12 13  2  0
 13 15  1  0
 15 14  2  0
 14 10  1  0
M  END

$$$$
