No_3687-gen_results/8p0m/2024-11-27-11-27-31/
     RDKit          3D

 17 18  0  0  0  0  0  0  0  0999 V2000
  -28.0162   -0.8135   28.8779 C   0  0  0  0  0  0  0  0  0  0  0  0
  -28.4690   -0.7850   29.8287 C   0  0  0  0  0  0  0  0  0  0  0  0
  -26.5455   -0.8762   28.8500 C   0  0  0  0  0  0  0  0  0  0  0  0
  -25.8041   -1.0324   30.0571 C   0  0  0  0  0  0  0  0  0  0  0  0
  -24.3697   -1.0998   30.0718 C   0  0  0  0  0  0  0  0  0  0  0  0
  -27.9902   -1.0051   31.2092 C   0  0  0  0  0  0  0  0  0  0  0  0
  -26.5616   -1.1368   31.2600 C   0  0  0  0  0  0  0  0  0  0  0  0
  -23.7274    0.1713   30.0259 C   0  0  0  0  0  0  0  0  0  0  0  0
  -22.4546    0.3063   29.4122 C   0  0  0  0  0  0  0  0  0  0  0  0
  -21.8762    1.5340   29.1375 C   0  0  0  0  0  0  0  0  0  0  0  0
  -24.2555    1.3416   30.6665 C   0  0  0  0  0  0  0  0  0  0  0  0
  -23.7440    2.6268   30.3563 C   0  0  0  0  0  0  0  0  0  0  0  0
  -22.5176    2.6840   29.6792 C   0  0  0  0  0  0  0  0  0  0  0  0
  -25.6146   -0.7230   27.4175 Cl  0  0  0  0  0  0  0  0  0  0  0  0
  -30.0793   -0.7203   29.8651 C   0  0  0  0  0  0  0  0  0  0  0  0
  -30.8051   -1.4635   30.3195 O   0  0  0  0  0  0  0  0  0  0  0  0
  -30.5055    0.1302   28.9102 O   0  0  0  0  0  0  0  0  0  0  0  0
  4  5  1  0
  5  8  1  0
  3 14  1  0
  2 15  1  0
 15 16  1  0
 15 17  2  0
  1  2  2  0
  2  6  1  0
  6  7  2  0
  7  4  1  0
  4  3  2  0
  3  1  1  0
  8  9  2  0
  9 10  1  0
 10 13  2  0
 13 12  1  0
 12 11  2  0
 11  8  1  0
M  END

$$$$
