No_3974-gen_results/8p0m/2024-11-27-11-27-31/
     RDKit          3D

 12 13  0  0  0  0  0  0  0  0999 V2000
  -28.1146   -0.6256   29.0813 Br  0  0  0  0  0  0  0  0  0  0  0  0
  -26.9268    0.4545   28.6846 C   0  0  0  0  0  0  0  0  0  0  0  0
  -25.8457    0.7043   29.3312 C   0  0  0  0  0  0  0  0  0  0  0  0
  -25.6532    0.3574   30.5121 C   0  0  0  0  0  0  0  0  0  0  0  0
  -24.4796    0.6430   31.3135 C   0  0  0  0  0  0  0  0  0  0  0  0
  -23.4435    1.2965   30.6680 C   0  0  0  0  0  0  0  0  0  0  0  0
  -23.5415    1.6796   29.3585 C   0  0  0  0  0  0  0  0  0  0  0  0
  -24.7470    1.3796   28.6635 C   0  0  0  0  0  0  0  0  0  0  0  0
  -27.1329    1.0675   27.2962 C   0  0  0  0  0  0  0  0  0  0  0  0
  -26.1805    0.9982   26.4110 C   0  0  0  0  0  0  0  0  0  0  0  0
  -24.8007    1.5838   27.1513 C   0  0  0  0  0  0  0  0  0  0  0  0
  -23.7139    2.1568   26.4060 C   0  0  0  0  0  0  0  0  0  0  0  0
  1  2  1  0
 11 12  1  0
  2  3  2  0
  8 11  2  0
 11 10  1  0
 10  9  2  0
  9  2  1  0
  3  4  1  0
  4  5  2  0
  5  6  1  0
  6  7  2  0
  7  8  1  0
  8  3  1  0
M  END

$$$$
