No_3400-gen_results/8p0m/2024-11-27-11-27-31/
     RDKit          3D

 25 27  0  0  0  0  0  0  0  0999 V2000
  -28.0162   -0.8135   28.8779 C   0  0  0  0  0  0  0  0  0  0  0  0
  -27.0636   -0.1190   28.6079 C   0  0  0  0  0  0  0  0  0  0  0  0
  -26.9716    0.7139   27.5060 C   0  0  0  0  0  0  0  0  0  0  0  0
  -28.1053    0.7744   26.6421 C   0  0  0  0  0  0  0  0  0  0  0  0
  -29.2041    0.1179   27.0477 C   0  0  0  0  0  0  0  0  0  0  0  0
  -29.2127   -0.6088   28.1281 C   0  0  0  0  0  0  0  0  0  0  0  0
  -25.7106    1.4518   27.1380 C   0  0  0  0  0  0  0  0  0  0  0  0
  -24.6052    0.9253   27.6902 C   0  0  0  0  0  0  0  0  0  0  0  0
  -23.3087    1.6018   27.4923 C   0  0  0  0  0  0  0  0  0  0  0  0
  -23.2169    2.4959   26.4391 C   0  0  0  0  0  0  0  0  0  0  0  0
  -25.5553    2.4208   26.1832 C   0  0  0  0  0  0  0  0  0  0  0  0
  -24.3322    3.0724   25.9239 C   0  0  0  0  0  0  0  0  0  0  0  0
  -22.0936    1.0267   28.1293 C   0  0  0  0  0  0  0  0  0  0  0  0
  -22.1200   -0.3724   29.2937 Br  0  0  0  0  0  0  0  0  0  0  0  0
  -20.7668    1.5674   27.8208 C   0  0  0  0  0  0  0  0  0  0  0  0
  -30.5885    0.2507   26.0408 Cl  0  0  0  0  0  0  0  0  0  0  0  0
  -28.0650   -1.6690   30.1172 C   0  0  0  0  0  0  0  0  0  0  0  0
  -27.3804   -2.8371   30.0444 N   0  0  0  0  0  0  0  0  0  0  0  0
  -26.0741   -2.8774   29.7717 C   0  0  0  0  0  0  0  0  0  0  0  0
  -25.4934   -4.1657   29.4124 C   0  0  0  0  0  0  0  0  0  0  0  0
  -28.0392   -4.0109   30.2583 C   0  0  0  0  0  0  0  0  0  0  0  0
  -24.1555   -4.1238   28.9972 C   0  0  0  0  0  0  0  0  0  0  0  0
  -23.4979   -2.8886   28.9071 C   0  0  0  0  0  0  0  0  0  0  0  0
  -24.0864   -1.6591   29.2492 C   0  0  0  0  0  0  0  0  0  0  0  0
  -25.3658   -1.7053   29.6569 C   0  0  0  0  0  0  0  0  0  0  0  0
  3  7  1  0
  9 13  1  0
 13 14  1  0
 13 15  1  0
  5 16  1  0
  1 17  1  0
 17 18  1  0
 18 19  1  0
 18 21  1  0
  7  8  2  0
  8  9  1  0
  9 10  2  0
 10 12  1  0
 12 11  2  0
 11  7  1  0
  1  2  2  0
  2  3  1  0
  3  4  2  0
  4  5  1  0
  5  6  2  0
  6  1  1  0
 19 20  2  0
 20 22  1  0
 22 23  2  0
 23 24  1  0
 24 25  2  0
 25 19  1  0
M  END

$$$$
