No_3133-gen_results/8p0m/2024-11-27-11-27-31/
     RDKit          3D

 31 33  0  0  0  0  0  0  0  0999 V2000
  -28.0162   -0.8135   28.8779 C   0  0  0  0  0  0  0  0  0  0  0  0
  -27.0636   -0.1189   28.6079 C   0  0  0  0  0  0  0  0  0  0  0  0
  -26.9287    1.1713   29.0083 C   0  0  0  0  0  0  0  0  0  0  0  0
  -27.9560    1.7411   29.7840 C   0  0  0  0  0  0  0  0  0  0  0  0
  -29.0569   -0.3271   29.7466 C   0  0  0  0  0  0  0  0  0  0  0  0
  -28.9828    0.9722   30.1516 C   0  0  0  0  0  0  0  0  0  0  0  0
  -25.8907   -0.6263   27.7857 C   0  0  0  0  0  0  0  0  0  0  0  0
  -24.5686   -0.1994   28.1996 C   0  0  0  0  0  0  0  0  0  0  0  0
  -23.6406   -0.6993   28.6892 C   0  0  0  0  0  0  0  0  0  0  0  0
  -22.3404   -0.0990   28.9706 C   0  0  0  0  0  0  0  0  0  0  0  0
  -22.2184    1.2278   28.4794 C   0  0  0  0  0  0  0  0  0  0  0  0
  -24.2283    1.2602   27.8314 C   0  0  0  0  0  0  0  0  0  0  0  0
  -23.1278    1.8708   27.9863 C   0  0  0  0  0  0  0  0  0  0  0  0
  -23.6932   -2.1483   29.1652 C   0  0  0  0  0  0  0  0  0  0  0  0
  -30.1842   -1.2162   30.1320 C   0  0  0  0  0  0  0  0  0  0  0  0
  -31.0682   -1.3712   29.3458 O   0  0  0  0  0  0  0  0  0  0  0  0
  -30.1639   -1.8270   31.2912 O   0  0  0  0  0  0  0  0  0  0  0  0
  -23.3210   -2.9696   28.3844 F   0  0  0  0  0  0  0  0  0  0  0  0
  -23.0338   -2.3223   30.3811 F   0  0  0  0  0  0  0  0  0  0  0  0
  -24.9903   -2.4091   29.5496 F   0  0  0  0  0  0  0  0  0  0  0  0
  -27.8298    3.1811   30.2451 C   0  0  0  0  0  0  0  0  0  0  0  0
  -27.0885    3.7029   29.7628 F   0  0  0  0  0  0  0  0  0  0  0  0
  -27.6411    3.1412   31.6116 F   0  0  0  0  0  0  0  0  0  0  0  0
  -29.0792    3.6970   30.0671 F   0  0  0  0  0  0  0  0  0  0  0  0
  -31.8946   -0.5051   28.8289 C   0  0  0  0  0  0  0  0  0  0  0  0
  -32.6922    0.1581   29.4921 C   0  0  0  0  0  0  0  0  0  0  0  0
  -33.0295   -0.1798   30.7391 C   0  0  0  0  0  0  0  0  0  0  0  0
  -33.9333    0.6479   31.5906 C   0  0  0  0  0  0  0  0  0  0  0  0
  -34.5327    1.7383   30.9156 C   0  0  0  0  0  0  0  0  0  0  0  0
  -34.2217    2.0979   29.6465 C   0  0  0  0  0  0  0  0  0  0  0  0
  -33.2729    1.3567   28.9139 C   0  0  0  0  0  0  0  0  0  0  0  0
  2  7  1  0
  7  8  1  0
  9 14  1  0
  5 15  1  0
 15 16  1  0
 15 17  2  0
 14 18  1  0
 14 19  1  0
 14 20  1  0
  4 21  1  0
 21 22  1  0
 21 23  1  0
 21 24  1  0
 16 25  1  0
 25 26  1  0
 26 27  2  0
 27 28  1  0
 28 29  2  0
 29 30  1  0
 30 31  2  0
 31 26  1  0
  1  2  2  0
  2  3  1  0
  3  4  2  0
  4  6  1  0
  6  5  2  0
  5  1  1  0
  8  9  2  0
  9 10  1  0
 10 11  2  0
 11 13  1  0
 13 12  2  0
 12  8  1  0
M  END

$$$$
