No_3202-gen_results/8p0m/2024-11-27-11-27-31/
     RDKit          3D

 21 24  0  0  0  0  0  0  0  0999 V2000
  -28.0162   -0.8135   28.8779 C   0  0  0  0  0  0  0  0  0  0  0  0
  -27.0636   -0.1189   28.6079 C   0  0  0  0  0  0  0  0  0  0  0  0
  -25.7647   -0.3897   29.0360 C   0  0  0  0  0  0  0  0  0  0  0  0
  -25.5296   -1.5302   29.9014 C   0  0  0  0  0  0  0  0  0  0  0  0
  -26.6888   -2.2893   30.1810 C   0  0  0  0  0  0  0  0  0  0  0  0
  -27.8727   -1.9508   29.7373 C   0  0  0  0  0  0  0  0  0  0  0  0
  -24.4208    0.2303   28.7927 C   0  0  0  0  0  0  0  0  0  0  0  0
  -23.2515   -0.1398   29.1486 C   0  0  0  0  0  0  0  0  0  0  0  0
  -22.0589    0.5740   28.8097 C   0  0  0  0  0  0  0  0  0  0  0  0
  -22.0262    1.5744   27.8848 C   0  0  0  0  0  0  0  0  0  0  0  0
  -24.5334    1.5343   27.9969 C   0  0  0  0  0  0  0  0  0  0  0  0
  -25.7200    1.9854   27.5087 C   0  0  0  0  0  0  0  0  0  0  0  0
  -23.3063    2.1898   27.5535 C   0  0  0  0  0  0  0  0  0  0  0  0
  -26.9776    1.1665   27.7690 C   0  0  0  0  0  0  0  0  0  0  0  0
  -28.2484    1.5831   27.1573 C   0  0  0  0  0  0  0  0  0  0  0  0
  -25.8280    3.0516   26.8821 O   0  0  0  0  0  0  0  0  0  0  0  0
  -28.5127    0.9840   25.9746 C   0  0  0  0  0  0  0  0  0  0  0  0
  -29.8162    0.7738   25.6080 C   0  0  0  0  0  0  0  0  0  0  0  0
  -29.0850    2.3856   27.8409 C   0  0  0  0  0  0  0  0  0  0  0  0
  -30.4464    2.3985   27.3633 C   0  0  0  0  0  0  0  0  0  0  0  0
  -30.7478    1.6972   26.1747 C   0  0  0  0  0  0  0  0  0  0  0  0
  3  7  1  0
 11 12  1  0
  2 14  1  0
 12 14  1  0
 14 15  1  0
 12 16  2  0
  1  2  2  0
  2  3  1  0
  3  4  2  0
  4  5  1  0
  5  6  2  0
  6  1  1  0
  7  8  2  0
  8  9  1  0
  9 10  2  0
 10 13  1  0
 13 11  2  0
 11  7  1  0
 15 17  2  0
 17 18  1  0
 18 21  2  0
 21 20  1  0
 20 19  2  0
 19 15  1  0
M  END

$$$$
