No_3904-gen_results/8p0m/2024-11-27-11-27-31/
     RDKit          3D

  8  7  0  0  0  0  0  0  0  0999 V2000
  -28.0727   -1.2542   28.5316 F   0  0  0  0  0  0  0  0  0  0  0  0
  -27.0607   -0.6291   28.8721 C   0  0  0  0  0  0  0  0  0  0  0  0
  -26.1267   -1.0777   29.2000 F   0  0  0  0  0  0  0  0  0  0  0  0
  -26.8088    0.4463   27.7632 C   0  0  0  0  0  0  0  0  0  0  0  0
  -27.1931    1.6255   28.1233 F   0  0  0  0  0  0  0  0  0  0  0  0
  -25.4441    0.5456   27.6347 F   0  0  0  0  0  0  0  0  0  0  0  0
  -27.3082    0.1177   26.5947 F   0  0  0  0  0  0  0  0  0  0  0  0
  -27.4562    0.0838   30.0106 F   0  0  0  0  0  0  0  0  0  0  0  0
  1  2  1  0
  2  3  1  0
  2  4  1  0
  4  5  1  0
  4  6  1  0
  4  7  1  0
  2  8  1  0
M  END

$$$$
