No_3602-gen_results/8p0m/2024-11-27-11-27-31/
     RDKit          3D

 24 25  0  0  0  0  0  0  0  0999 V2000
  -28.0162   -0.8135   28.8779 C   0  0  0  0  0  0  0  0  0  0  0  0
  -27.0636   -0.1189   28.6079 C   0  0  0  0  0  0  0  0  0  0  0  0
  -26.9716    0.7139   27.5060 C   0  0  0  0  0  0  0  0  0  0  0  0
  -25.8205    1.4909   27.1160 C   0  0  0  0  0  0  0  0  0  0  0  0
  -24.6562    1.4242   27.9180 C   0  0  0  0  0  0  0  0  0  0  0  0
  -24.6847    0.5901   29.0659 C   0  0  0  0  0  0  0  0  0  0  0  0
  -25.8099   -0.1265   29.3338 C   0  0  0  0  0  0  0  0  0  0  0  0
  -28.6943   -0.4734   30.1587 C   0  0  0  0  0  0  0  0  0  0  0  0
  -28.6464    0.5791   30.6346 N   0  0  0  0  0  0  0  0  0  0  0  0
  -29.4492   -1.4807   30.6875 O   0  0  0  0  0  0  0  0  0  0  0  0
  -29.3723    0.9449   31.8942 C   0  0  0  0  0  0  0  0  0  0  0  0
  -23.4607    2.1938   27.6354 C   0  0  0  0  0  0  0  0  0  0  0  0
  -22.5963    2.2673   28.5295 O   0  0  0  0  0  0  0  0  0  0  0  0
  -23.1269    2.4751   26.3841 O   0  0  0  0  0  0  0  0  0  0  0  0
  -28.1081    0.8395   26.5821 C   0  0  0  0  0  0  0  0  0  0  0  0
  -29.1406    1.3510   26.8636 O   0  0  0  0  0  0  0  0  0  0  0  0
  -27.9767    0.3326   25.3830 O   0  0  0  0  0  0  0  0  0  0  0  0
  -29.3402    2.1759   32.0856 C   0  0  0  0  0  0  0  0  0  0  0  0
  -29.8306    2.7730   33.1438 N   0  0  0  0  0  0  0  0  0  0  0  0
  -28.7456    3.0753   31.2029 N   0  0  0  0  0  0  0  0  0  0  0  0
  -28.6810    4.4899   31.4132 C   0  0  0  0  0  0  0  0  0  0  0  0
  -29.8684    4.1215   33.4412 C   0  0  0  0  0  0  0  0  0  0  0  0
  -29.2546    4.9792   32.5289 C   0  0  0  0  0  0  0  0  0  0  0  0
  -27.7106    5.2581   30.3216 Cl  0  0  0  0  0  0  0  0  0  0  0  0
  1  8  1  0
  8  9  1  0
  8 10  2  0
  9 11  1  0
  5 12  1  0
 12 13  2  0
 12 14  1  0
  3 15  1  0
 15 16  2  0
 15 17  1  0
 21 24  1  0
 11 18  1  0
  1  2  1  0
  2  3  2  0
  3  4  1  0
  4  5  2  0
  5  6  1  0
  6  7  2  0
  7  2  1  0
 18 19  2  0
 19 22  1  0
 22 23  2  0
 23 21  1  0
 21 20  2  0
 20 18  1  0
M  END

$$$$
