No_3611-gen_results/8p0m/2024-11-27-11-27-31/
     RDKit          3D

  9  9  0  0  0  0  0  0  0  0999 V2000
  -28.1229   -1.3353   28.4874 O   0  0  0  0  0  0  0  0  0  0  0  0
  -27.0637   -0.8242   28.8687 C   0  0  0  0  0  0  0  0  0  0  0  0
  -26.4017   -0.0623   28.6224 C   0  0  0  0  0  0  0  0  0  0  0  0
  -26.4746   -1.7566   29.9709 F   0  0  0  0  0  0  0  0  0  0  0  0
  -26.7809    1.0730   27.8517 C   0  0  0  0  0  0  0  0  0  0  0  0
  -25.8832    1.7889   27.0215 C   0  0  0  0  0  0  0  0  0  0  0  0
  -24.4814    1.8126   27.3668 C   0  0  0  0  0  0  0  0  0  0  0  0
  -24.0501    0.8441   28.3154 C   0  0  0  0  0  0  0  0  0  0  0  0
  -24.8713   -0.0333   28.8418 C   0  0  0  0  0  0  0  0  0  0  0  0
  1  2  2  0
  2  3  1  0
  2  4  1  0
  3  5  2  0
  5  6  1  0
  6  7  2  0
  7  8  1  0
  8  9  2  0
  9  3  1  0
M  END

$$$$
