No_3057-gen_results/8p0m/2024-11-27-11-27-31/
     RDKit          3D

 17 17  0  0  0  0  0  0  0  0999 V2000
  -28.0162   -0.8135   28.8779 C   0  0  0  0  0  0  0  0  0  0  0  0
  -27.0636   -0.1190   28.6079 C   0  0  0  0  0  0  0  0  0  0  0  0
  -26.9716    0.7139   27.5060 C   0  0  0  0  0  0  0  0  0  0  0  0
  -28.1053    0.7744   26.6421 C   0  0  0  0  0  0  0  0  0  0  0  0
  -29.2008    0.1044   27.0527 C   0  0  0  0  0  0  0  0  0  0  0  0
  -28.0219   -1.5899   30.0879 C   0  0  0  0  0  0  0  0  0  0  0  0
  -29.1640   -0.6394   28.1484 C   0  0  0  0  0  0  0  0  0  0  0  0
  -27.0234   -2.3569   30.3744 N   0  0  0  0  0  0  0  0  0  0  0  0
  -29.0647   -1.7680   30.8027 O   0  0  0  0  0  0  0  0  0  0  0  0
  -30.3759    0.2148   26.1648 C   0  0  0  0  0  0  0  0  0  0  0  0
  -31.2719   -0.4093   26.3332 O   0  0  0  0  0  0  0  0  0  0  0  0
  -30.3790    1.0221   25.1202 O   0  0  0  0  0  0  0  0  0  0  0  0
  -25.7491   -2.3127   29.6803 C   0  0  0  0  0  0  0  0  0  0  0  0
  -24.8815   -1.4582   30.1062 C   0  0  0  0  0  0  0  0  0  0  0  0
  -24.9195   -0.6754   31.3070 C   0  0  0  0  0  0  0  0  0  0  0  0
  -23.9360    0.2876   31.5807 C   0  0  0  0  0  0  0  0  0  0  0  0
  -22.9124    0.5808   30.6498 C   0  0  0  0  0  0  0  0  0  0  0  0
  1  6  1  0
  6  8  1  0
  6  9  2  0
  5 10  1  0
 10 11  1  0
 10 12  2  0
  8 13  1  0
 13 14  2  3
 14 15  1  0
 15 16  2  3
 16 17  1  0
  1  2  2  0
  2  3  1  0
  3  4  2  0
  4  5  1  0
  5  7  2  0
  7  1  1  0
M  END

$$$$
