No_3258-gen_results/8p0m/2024-11-27-11-27-31/
     RDKit          3D

 29 32  0  0  0  0  0  0  0  0999 V2000
  -28.0162   -0.8135   28.8779 C   0  0  0  0  0  0  0  0  0  0  0  0
  -28.4690   -0.7850   29.8287 C   0  0  0  0  0  0  0  0  0  0  0  0
  -27.0871    0.2903   28.6377 C   0  0  0  0  0  0  0  0  0  0  0  0
  -26.0238    0.3644   29.2526 C   0  0  0  0  0  0  0  0  0  0  0  0
  -27.5370   -0.6187   31.0883 C   0  0  0  0  0  0  0  0  0  0  0  0
  -26.3844    0.1834   30.8012 C   0  0  0  0  0  0  0  0  0  0  0  0
  -29.6227   -1.6698   30.2973 C   0  0  0  0  0  0  0  0  0  0  0  0
  -29.6070   -2.7948   30.6556 N   0  0  0  0  0  0  0  0  0  0  0  0
  -30.9459   -1.0227   30.1532 C   0  0  0  0  0  0  0  0  0  0  0  0
  -30.6699   -3.6330   30.8271 C   0  0  0  0  0  0  0  0  0  0  0  0
  -31.0527    0.3244   29.7096 C   0  0  0  0  0  0  0  0  0  0  0  0
  -32.0537   -1.8178   30.4466 C   0  0  0  0  0  0  0  0  0  0  0  0
  -31.9112   -3.1172   30.8319 C   0  0  0  0  0  0  0  0  0  0  0  0
  -30.6848    1.2288   30.4136 O   0  0  0  0  0  0  0  0  0  0  0  0
  -31.7680    0.5216   28.6313 O   0  0  0  0  0  0  0  0  0  0  0  0
  -26.5951    0.4612   27.0709 C   0  0  0  0  0  0  0  0  0  0  0  0
  -25.4932    0.9084   26.7647 C   0  0  0  0  0  0  0  0  0  0  0  0
  -24.4691    1.1940   27.7287 C   0  0  0  0  0  0  0  0  0  0  0  0
  -24.7442    0.9281   29.0456 C   0  0  0  0  0  0  0  0  0  0  0  0
  -23.1050    1.6507   27.3112 C   0  0  0  0  0  0  0  0  0  0  0  0
  -22.9154    2.0389   26.1617 F   0  0  0  0  0  0  0  0  0  0  0  0
  -22.7815    2.8447   28.0941 F   0  0  0  0  0  0  0  0  0  0  0  0
  -22.1282    0.7736   27.6734 F   0  0  0  0  0  0  0  0  0  0  0  0
  -27.6491    0.3310   25.9983 C   0  0  0  0  0  0  0  0  0  0  0  0
  -28.8494    1.0454   26.0899 C   0  0  0  0  0  0  0  0  0  0  0  0
  -29.2137    1.6425   25.1712 C   0  0  0  0  0  0  0  0  0  0  0  0
  -28.9102    1.1458   23.8119 C   0  0  0  0  0  0  0  0  0  0  0  0
  -27.3396   -0.0422   24.7396 C   0  0  0  0  0  0  0  0  0  0  0  0
  -27.8649    0.3681   23.6883 C   0  0  0  0  0  0  0  0  0  0  0  0
  1  2  1  0
  1  3  1  0
  2  5  1  0
  4  6  1  0
  5  6  1  0
  2  7  1  0
  9 11  1  0
 11 14  2  0
 11 15  1  0
 18 20  1  0
 20 21  1  0
 20 22  1  0
 20 23  1  0
 16 24  1  0
  7  8  2  0
  8 10  1  0
 10 13  2  0
 13 12  1  0
 12  9  2  0
  9  7  1  0
  3  4  2  0
  4 19  1  0
 19 18  2  0
 18 17  1  0
 17 16  2  0
 16  3  1  0
 24 25  2  0
 25 26  1  0
 26 27  2  0
 27 29  1  0
 29 28  2  0
 28 24  1  0
M  END

$$$$
