No_3454-gen_results/8p0m/2024-11-27-11-27-31/
     RDKit          3D

 35 39  0  0  0  0  0  0  0  0999 V2000
  -28.0162   -0.8135   28.8779 C   0  0  0  0  0  0  0  0  0  0  0  0
  -27.0636   -0.1190   28.6079 C   0  0  0  0  0  0  0  0  0  0  0  0
  -25.7647   -0.3897   29.0360 C   0  0  0  0  0  0  0  0  0  0  0  0
  -25.5296   -1.5302   29.9014 C   0  0  0  0  0  0  0  0  0  0  0  0
  -26.6577   -2.2915   30.2035 C   0  0  0  0  0  0  0  0  0  0  0  0
  -27.8548   -1.9555   29.7630 C   0  0  0  0  0  0  0  0  0  0  0  0
  -24.5349    0.4128   28.7431 C   0  0  0  0  0  0  0  0  0  0  0  0
  -24.4835    1.2431   27.7398 C   0  0  0  0  0  0  0  0  0  0  0  0
  -25.0977    1.6893   26.9916 C   0  0  0  0  0  0  0  0  0  0  0  0
  -24.7336    2.5972   25.9227 C   0  0  0  0  0  0  0  0  0  0  0  0
  -23.3807    2.8916   25.8163 C   0  0  0  0  0  0  0  0  0  0  0  0
  -22.9354    1.7161   27.6160 C   0  0  0  0  0  0  0  0  0  0  0  0
  -22.5718    2.5014   26.6712 N   0  0  0  0  0  0  0  0  0  0  0  0
  -23.4264    0.2608   29.7503 C   0  0  0  0  0  0  0  0  0  0  0  0
  -22.0226    1.3060   28.5712 N   0  0  0  0  0  0  0  0  0  0  0  0
  -22.2141    0.6538   29.5121 N   0  0  0  0  0  0  0  0  0  0  0  0
  -28.9414   -2.7254   30.0689 O   0  0  0  0  0  0  0  0  0  0  0  0
  -29.3038   -2.8101   31.4100 C   0  0  0  0  0  0  0  0  0  0  0  0
  -30.6951   -2.6960   31.5934 C   0  0  0  0  0  0  0  0  0  0  0  0
  -31.4099   -2.4562   30.7724 O   0  0  0  0  0  0  0  0  0  0  0  0
  -31.0848   -2.4449   32.9438 N   0  0  0  0  0  0  0  0  0  0  0  0
  -30.2135   -2.4749   34.0923 C   0  0  0  0  0  0  0  0  0  0  0  0
  -28.9157   -2.3638   33.6742 C   0  0  0  0  0  0  0  0  0  0  0  0
  -28.4373   -2.7184   32.4112 C   0  0  0  0  0  0  0  0  0  0  0  0
  -28.0385   -2.7939   34.7336 O   0  0  0  0  0  0  0  0  0  0  0  0
  -32.5703   -2.4275   33.1325 C   0  0  0  0  0  0  0  0  0  0  0  0
  -33.1340   -1.1892   33.1649 C   0  0  0  0  0  0  0  0  0  0  0  0
  -34.2831   -1.0196   33.1102 C   0  0  0  0  0  0  0  0  0  0  0  0
  -34.9348    0.3105   33.0820 C   0  0  0  0  0  0  0  0  0  0  0  0
  -34.0832    1.4255   33.1520 C   0  0  0  0  0  0  0  0  0  0  0  0
  -32.7074    1.2393   33.1828 C   0  0  0  0  0  0  0  0  0  0  0  0
  -32.2118   -0.0043   33.1950 C   0  0  0  0  0  0  0  0  0  0  0  0
  -33.1811   -3.4390   32.3163 C   0  0  0  0  0  0  0  0  0  0  0  0
  -32.7545   -2.8427   34.7215 C   0  0  0  0  0  0  0  0  0  0  0  0
  -32.8975   -2.2311   35.6132 C   0  0  0  0  0  0  0  0  0  0  0  0
  3  7  1  0
  7  8  1  0
  7 14  1  0
 12 15  1  0
 14 16  1  0
 15 16  1  0
  6 17  1  0
 17 18  1  0
 18 19  1  0
 19 20  2  0
 19 21  1  0
 21 22  1  0
 18 24  1  0
 23 24  1  0
 23 25  1  0
 21 26  1  0
 26 27  1  0
 26 33  1  0
 26 34  1  0
 34 35  1  0
 23 22  1  0
  1  2  2  0
  2  3  1  0
  3  4  2  0
  4  5  1  0
  5  6  2  0
  6  1  1  0
 27 28  2  0
 28 29  1  0
 29 30  2  0
 30 31  1  0
 31 32  2  0
 32 27  1  0
  8  9  2  0
  9 10  1  0
 10 11  2  0
 11 13  1  0
 13 12  2  0
 12  8  1  0
M  END

$$$$
