No_3548-gen_results/8p0m/2024-11-27-11-27-31/
     RDKit          3D

 21 22  0  0  0  0  0  0  0  0999 V2000
  -28.0162   -0.8135   28.8779 C   0  0  0  0  0  0  0  0  0  0  0  0
  -27.0636   -0.1189   28.6079 C   0  0  0  0  0  0  0  0  0  0  0  0
  -25.8176   -0.3427   29.0488 N   0  0  0  0  0  0  0  0  0  0  0  0
  -24.6506    0.4444   28.7649 C   0  0  0  0  0  0  0  0  0  0  0  0
  -24.7153    1.3122   27.7191 C   0  0  0  0  0  0  0  0  0  0  0  0
  -25.9996    1.5243   27.1533 C   0  0  0  0  0  0  0  0  0  0  0  0
  -27.0905    0.8203   27.5377 C   0  0  0  0  0  0  0  0  0  0  0  0
  -29.2589   -0.2577   28.9163 N   0  0  0  0  0  0  0  0  0  0  0  0
  -27.8926   -1.9261   29.5889 O   0  0  0  0  0  0  0  0  0  0  0  0
  -30.4217   -0.9304   29.4185 C   0  0  0  0  0  0  0  0  0  0  0  0
  -23.5394    2.0755   27.3574 C   0  0  0  0  0  0  0  0  0  0  0  0
  -23.6903    3.2270   27.3603 F   0  0  0  0  0  0  0  0  0  0  0  0
  -22.5256    1.8562   28.3564 F   0  0  0  0  0  0  0  0  0  0  0  0
  -23.0177    1.6400   26.1522 F   0  0  0  0  0  0  0  0  0  0  0  0
  -31.5692   -0.7339   28.5706 C   0  0  0  0  0  0  0  0  0  0  0  0
  -32.4179   -1.7134   28.4288 C   0  0  0  0  0  0  0  0  0  0  0  0
  -33.4107   -1.5992   27.4002 C   0  0  0  0  0  0  0  0  0  0  0  0
  -33.5184   -0.4571   26.5994 C   0  0  0  0  0  0  0  0  0  0  0  0
  -32.5916    0.5275   26.7678 C   0  0  0  0  0  0  0  0  0  0  0  0
  -31.5566    0.3818   27.6934 C   0  0  0  0  0  0  0  0  0  0  0  0
  -30.5433   -1.0456   30.6246 O   0  0  0  0  0  0  0  0  0  0  0  0
  1  2  1  0
  1  8  1  0
  1  9  2  0
  8 10  1  0
  5 11  1  0
 11 12  1  0
 11 13  1  0
 11 14  1  0
 10 15  1  0
 10 21  2  0
 15 16  2  0
 16 17  1  0
 17 18  2  0
 18 19  1  0
 19 20  2  0
 20 15  1  0
  2  3  2  0
  3  4  1  0
  4  5  2  0
  5  6  1  0
  6  7  2  0
  7  2  1  0
M  END

$$$$
