No_3014-gen_results/8p0m/2024-11-27-11-27-31/
     RDKit          3D

 35 38  0  0  0  0  0  0  0  0999 V2000
  -28.0162   -0.8135   28.8779 C   0  0  0  0  0  0  0  0  0  0  0  0
  -28.4690   -0.7850   29.8287 C   0  0  0  0  0  0  0  0  0  0  0  0
  -28.2734    0.1702   27.9725 N   0  0  0  0  0  0  0  0  0  0  0  0
  -27.5323    0.3782   26.8151 C   0  0  0  0  0  0  0  0  0  0  0  0
  -28.0623    1.0051   25.7376 C   0  0  0  0  0  0  0  0  0  0  0  0
  -26.2704    0.0297   26.7330 O   0  0  0  0  0  0  0  0  0  0  0  0
  -28.0675    2.2140   25.6502 C   0  0  0  0  0  0  0  0  0  0  0  0
  -28.6078    0.1709   24.6771 C   0  0  0  0  0  0  0  0  0  0  0  0
  -27.5317    3.1097   26.6393 C   0  0  0  0  0  0  0  0  0  0  0  0
  -28.1100    4.3823   26.8782 C   0  0  0  0  0  0  0  0  0  0  0  0
  -27.5891    5.2910   27.8410 C   0  0  0  0  0  0  0  0  0  0  0  0
  -26.3635    4.9539   28.4517 C   0  0  0  0  0  0  0  0  0  0  0  0
  -25.7188    3.7330   28.1414 C   0  0  0  0  0  0  0  0  0  0  0  0
  -26.2614    2.9139   27.2017 C   0  0  0  0  0  0  0  0  0  0  0  0
  -29.4202    0.8454   28.3392 C   0  0  0  0  0  0  0  0  0  0  0  0
  -30.0171    0.7854   29.5308 C   0  0  0  0  0  0  0  0  0  0  0  0
  -29.5448   -0.1757   30.3821 C   0  0  0  0  0  0  0  0  0  0  0  0
  -31.1974    1.6504   29.8564 C   0  0  0  0  0  0  0  0  0  0  0  0
  -31.9115    2.1284   29.2035 O   0  0  0  0  0  0  0  0  0  0  0  0
  -31.0469    2.1439   31.1609 O   0  0  0  0  0  0  0  0  0  0  0  0
  -25.7233    5.9111   29.4029 C   0  0  0  0  0  0  0  0  0  0  0  0
  -26.3553    6.6605   30.0799 N   0  0  0  0  0  0  0  0  0  0  0  0
  -25.8232    7.5257   30.9554 C   0  0  0  0  0  0  0  0  0  0  0  0
  -26.0323    7.7583   32.2116 C   0  0  0  0  0  0  0  0  0  0  0  0
  -24.6993    8.4227   30.3573 C   0  0  0  0  0  0  0  0  0  0  0  0
  -23.9399    9.2536   31.2284 C   0  0  0  0  0  0  0  0  0  0  0  0
  -25.3281    8.6347   33.0894 C   0  0  0  0  0  0  0  0  0  0  0  0
  -24.2738    9.3959   32.5372 C   0  0  0  0  0  0  0  0  0  0  0  0
  -27.7561    6.6105   30.2547 C   0  0  0  0  0  0  0  0  0  0  0  0
  -28.2593    7.0961   31.4684 C   0  0  0  0  0  0  0  0  0  0  0  0
  -27.4661    7.7258   32.4637 C   0  0  0  0  0  0  0  0  0  0  0  0
  -24.4469    5.9408   29.2880 O   0  0  0  0  0  0  0  0  0  0  0  0
  -29.6802    6.7282   31.8119 C   0  0  0  0  0  0  0  0  0  0  0  0
  -30.0022    6.5786   32.9185 F   0  0  0  0  0  0  0  0  0  0  0  0
  -30.5028    7.6913   31.1959 F   0  0  0  0  0  0  0  0  0  0  0  0
  1  3  1  0
  3  4  1  0
  4  5  1  0
  4  6  2  0
  5  7  1  0
  5  8  1  0
  7  9  1  0
  3 15  1  0
  2 17  1  0
 16 17  1  0
 16 18  1  0
 18 19  2  0
 18 20  1  0
 12 21  1  0
 21 22  1  0
 22 23  1  0
 22 29  1  0
 24 31  1  0
 30 31  1  0
 21 32  2  0
 30 33  1  0
 33 34  1  0
 33 35  1  0
  1  2  1  0
 16 15  1  0
 30 29  1  0
 23 25  2  0
 25 26  1  0
 26 28  2  0
 28 27  1  0
 27 24  2  0
 24 23  1  0
  9 10  2  0
 10 11  1  0
 11 12  2  0
 12 13  1  0
 13 14  2  0
 14  9  1  0
M  END

$$$$
