No_3448-gen_results/8p0m/2024-11-27-11-27-31/
     RDKit          3D

 31 32  0  0  0  0  0  0  0  0999 V2000
  -28.0162   -0.8135   28.8779 C   0  0  0  0  0  0  0  0  0  0  0  0
  -28.4690   -0.7850   29.8287 C   0  0  0  0  0  0  0  0  0  0  0  0
  -27.0871    0.2903   28.6377 C   0  0  0  0  0  0  0  0  0  0  0  0
  -26.8317    1.2487   29.5869 C   0  0  0  0  0  0  0  0  0  0  0  0
  -28.3914    0.0801   31.0065 C   0  0  0  0  0  0  0  0  0  0  0  0
  -27.4940    1.1521   30.7841 C   0  0  0  0  0  0  0  0  0  0  0  0
  -26.3109    0.3918   27.3640 C   0  0  0  0  0  0  0  0  0  0  0  0
  -25.5530   -0.4068   27.2286 F   0  0  0  0  0  0  0  0  0  0  0  0
  -25.6173    1.6102   27.2977 F   0  0  0  0  0  0  0  0  0  0  0  0
  -27.1940    0.4863   26.2871 F   0  0  0  0  0  0  0  0  0  0  0  0
  -29.4507   -2.0327   30.2361 C   0  0  0  0  0  0  0  0  0  0  0  0
  -28.9820   -3.1803   30.3476 O   0  0  0  0  0  0  0  0  0  0  0  0
  -30.6300   -1.9040   30.5163 O   0  0  0  0  0  0  0  0  0  0  0  0
  -27.2798    2.1723   31.8415 C   0  0  0  0  0  0  0  0  0  0  0  0
  -27.1209    1.9835   32.9179 O   0  0  0  0  0  0  0  0  0  0  0  0
  -27.1441    3.4819   31.3148 N   0  0  0  0  0  0  0  0  0  0  0  0
  -26.7850    4.4426   31.9525 C   0  0  0  0  0  0  0  0  0  0  0  0
  -27.1894    5.6418   31.5995 C   0  0  0  0  0  0  0  0  0  0  0  0
  -27.3818    5.8975   30.2956 C   0  0  0  0  0  0  0  0  0  0  0  0
  -27.6826    4.7805   29.4482 C   0  0  0  0  0  0  0  0  0  0  0  0
  -27.6197    3.6293   29.9910 C   0  0  0  0  0  0  0  0  0  0  0  0
  -28.0849    5.0848   28.0595 C   0  0  0  0  0  0  0  0  0  0  0  0
  -28.7700    5.8124   27.6677 O   0  0  0  0  0  0  0  0  0  0  0  0
  -27.5117    4.1421   27.2122 O   0  0  0  0  0  0  0  0  0  0  0  0
  -31.3527   -1.0607   30.5233 C   0  0  0  0  0  0  0  0  0  0  0  0
  -31.5827   -0.1653   31.4429 C   0  0  0  0  0  0  0  0  0  0  0  0
  -32.2133    0.7155   31.6559 C   0  0  0  0  0  0  0  0  0  0  0  0
  -32.2435    1.7454   32.7619 C   0  0  0  0  0  0  0  0  0  0  0  0
  -31.3030    1.5265   33.7834 C   0  0  0  0  0  0  0  0  0  0  0  0
  -30.4552    0.4720   33.6988 C   0  0  0  0  0  0  0  0  0  0  0  0
  -30.5314   -0.3793   32.6100 C   0  0  0  0  0  0  0  0  0  0  0  0
  3  7  1  0
  7  8  1  0
  7  9  1  0
  7 10  1  0
  2 11  1  0
 11 12  2  0
 11 13  1  0
  6 14  1  0
 14 15  2  0
 14 16  1  0
 16 17  1  0
 18 19  1  0
 16 21  1  0
 20 21  1  0
 20 22  1  0
 22 23  2  0
 22 24  1  0
 13 25  1  0
 25 26  2  3
 26 27  1  0
 27 28  2  3
 28 29  1  0
 29 30  2  3
 30 31  1  0
 17 18  1  0
 19 20  1  0
  1  2  2  0
  2  5  1  0
  5  6  2  0
  6  4  1  0
  4  3  2  0
  3  1  1  0
M  END

$$$$
