No_3501-gen_results/8p0m/2024-11-27-11-27-31/
     RDKit          3D

 20 22  0  0  0  0  0  0  0  0999 V2000
  -28.0162   -0.8135   28.8779 C   0  0  0  0  0  0  0  0  0  0  0  0
  -27.0636   -0.1190   28.6079 C   0  0  0  0  0  0  0  0  0  0  0  0
  -25.7647   -0.3897   29.0360 C   0  0  0  0  0  0  0  0  0  0  0  0
  -25.5296   -1.5302   29.9014 C   0  0  0  0  0  0  0  0  0  0  0  0
  -26.6888   -2.2893   30.1810 C   0  0  0  0  0  0  0  0  0  0  0  0
  -27.8727   -1.9508   29.7373 C   0  0  0  0  0  0  0  0  0  0  0  0
  -29.4359   -2.8236   30.2003 Br  0  0  0  0  0  0  0  0  0  0  0  0
  -24.5156    0.4060   28.7231 C   0  0  0  0  0  0  0  0  0  0  0  0
  -24.0398    1.3738   29.5911 C   0  0  0  0  0  0  0  0  0  0  0  0
  -22.9696    2.0988   29.1710 N   0  0  0  0  0  0  0  0  0  0  0  0
  -24.6320    1.6831   30.6684 O   0  0  0  0  0  0  0  0  0  0  0  0
  -22.1701    1.8606   28.0014 C   0  0  0  0  0  0  0  0  0  0  0  0
  -23.7772    0.2093   27.4837 C   0  0  0  0  0  0  0  0  0  0  0  0
  -22.7098    0.9367   27.2257 C   0  0  0  0  0  0  0  0  0  0  0  0
  -27.1674    1.0704   27.6476 C   0  0  0  0  0  0  0  0  0  0  0  0
  -27.5950    2.1904   28.2893 C   0  0  0  0  0  0  0  0  0  0  0  0
  -27.6971    3.3934   27.5604 C   0  0  0  0  0  0  0  0  0  0  0  0
  -27.4127    3.3434   26.1968 C   0  0  0  0  0  0  0  0  0  0  0  0
  -26.9026    1.0065   26.3483 C   0  0  0  0  0  0  0  0  0  0  0  0
  -27.0195    2.1366   25.5681 C   0  0  0  0  0  0  0  0  0  0  0  0
  6  7  1  0
  3  8  1  0
  9 11  1  0
  2 15  1  0
 15 16  2  0
 16 17  1  0
 17 18  2  0
 18 20  1  0
 20 19  2  0
 19 15  1  0
  1  2  2  0
  2  3  1  0
  3  4  2  0
  4  5  1  0
  5  6  2  0
  6  1  1  0
  8  9  2  0
  9 10  1  0
 10 12  2  0
 12 14  1  0
 14 13  2  0
 13  8  1  0
M  END

$$$$
