No_3780-gen_results/8p0m/2024-11-27-11-27-31/
     RDKit          3D

 29 33  0  0  0  0  0  0  0  0999 V2000
  -28.0162   -0.8135   28.8779 C   0  0  0  0  0  0  0  0  0  0  0  0
  -28.4690   -0.7850   29.8287 C   0  0  0  0  0  0  0  0  0  0  0  0
  -26.5455   -0.8762   28.8500 C   0  0  0  0  0  0  0  0  0  0  0  0
  -25.8041   -1.0324   30.0571 C   0  0  0  0  0  0  0  0  0  0  0  0
  -27.9437   -0.9869   31.2075 C   0  0  0  0  0  0  0  0  0  0  0  0
  -26.5825   -1.0386   31.2231 C   0  0  0  0  0  0  0  0  0  0  0  0
  -24.3810   -1.1082   30.0855 C   0  0  0  0  0  0  0  0  0  0  0  0
  -23.7590   -1.1322   30.8961 C   0  0  0  0  0  0  0  0  0  0  0  0
  -22.2395   -1.0663   30.9853 C   0  0  0  0  0  0  0  0  0  0  0  0
  -21.6850   -0.8653   29.7652 C   0  0  0  0  0  0  0  0  0  0  0  0
  -22.4213   -0.7284   28.5819 C   0  0  0  0  0  0  0  0  0  0  0  0
  -23.8520   -0.8586   28.7157 C   0  0  0  0  0  0  0  0  0  0  0  0
  -30.0827   -0.6759   29.8751 C   0  0  0  0  0  0  0  0  0  0  0  0
  -30.5102   -0.1729   28.9395 O   0  0  0  0  0  0  0  0  0  0  0  0
  -30.7956   -1.1341   30.9310 N   0  0  0  0  0  0  0  0  0  0  0  0
  -32.2298   -1.0242   30.9130 C   0  0  0  0  0  0  0  0  0  0  0  0
  -32.8057   -1.7870   31.6712 C   0  0  0  0  0  0  0  0  0  0  0  0
  -32.1718   -2.5418   32.7022 C   0  0  0  0  0  0  0  0  0  0  0  0
  -31.0066   -2.4334   32.7433 C   0  0  0  0  0  0  0  0  0  0  0  0
  -30.1371   -1.9661   31.8611 C   0  0  0  0  0  0  0  0  0  0  0  0
  -28.7262   -1.8896   32.0605 C   0  0  0  0  0  0  0  0  0  0  0  0
  -34.3590   -1.7236   31.6498 C   0  0  0  0  0  0  0  0  0  0  0  0
  -35.0362   -2.4471   31.1563 O   0  0  0  0  0  0  0  0  0  0  0  0
  -34.8595   -0.3613   31.9331 N   0  0  0  0  0  0  0  0  0  0  0  0
  -36.2232   -0.0982   31.8699 C   0  0  0  0  0  0  0  0  0  0  0  0
  -36.4768    1.0914   31.5792 C   0  0  0  0  0  0  0  0  0  0  0  0
  -35.5333    2.1761   31.6531 C   0  0  0  0  0  0  0  0  0  0  0  0
  -34.1593    1.8222   31.7414 C   0  0  0  0  0  0  0  0  0  0  0  0
  -33.8593    0.6215   31.8320 C   0  0  0  0  0  0  0  0  0  0  0  0
  4  7  1  0
  2 13  1  0
 13 14  2  0
 13 15  1  0
 15 16  1  0
 17 18  1  0
 15 20  1  0
 19 20  1  0
  5 21  1  0
 20 21  1  0
 17 22  1  0
 22 23  2  0
 22 24  1  0
 24 25  1  0
 26 27  1  0
 24 29  1  0
 28 29  1  0
 16 17  1  0
 18 19  1  0
 25 26  1  0
 27 28  1  0
  7  8  2  0
  8  9  1  0
  9 10  2  0
 10 11  1  0
 11 12  2  0
 12  7  1  0
  1  2  2  0
  2  5  1  0
  5  6  2  0
  6  4  1  0
  4  3  2  0
  3  1  1  0
M  END

$$$$
