No_3767-gen_results/8p0m/2024-11-27-11-27-31/
     RDKit          3D

 32 35  0  0  0  0  0  0  0  0999 V2000
  -28.0162   -0.8135   28.8779 C   0  0  0  0  0  0  0  0  0  0  0  0
  -27.0636   -0.1189   28.6079 C   0  0  0  0  0  0  0  0  0  0  0  0
  -25.7647   -0.3897   29.0360 C   0  0  0  0  0  0  0  0  0  0  0  0
  -24.5516    0.4058   28.7646 C   0  0  0  0  0  0  0  0  0  0  0  0
  -24.6957    1.4480   27.7988 C   0  0  0  0  0  0  0  0  0  0  0  0
  -25.9755    1.7250   27.3077 C   0  0  0  0  0  0  0  0  0  0  0  0
  -27.0718    1.0134   27.6535 C   0  0  0  0  0  0  0  0  0  0  0  0
  -29.1869   -0.1649   29.1026 N   0  0  0  0  0  0  0  0  0  0  0  0
  -23.4964    2.1689   27.4760 C   0  0  0  0  0  0  0  0  0  0  0  0
  -23.5139    3.1186   26.6266 C   0  0  0  0  0  0  0  0  0  0  0  0
  -22.2125    1.4564   27.5513 C   0  0  0  0  0  0  0  0  0  0  0  0
  -29.5487    0.7261   28.5402 C   0  0  0  0  0  0  0  0  0  0  0  0
  -30.8493    1.3426   28.5575 C   0  0  0  0  0  0  0  0  0  0  0  0
  -28.6595    1.5239   27.6529 C   0  0  0  0  0  0  0  0  0  0  0  0
  -21.9632    0.6211   28.5629 N   0  0  0  0  0  0  0  0  0  0  0  0
  -23.1552   -0.1719   29.0177 C   0  0  0  0  0  0  0  0  0  0  0  0
  -25.5865   -1.1116   30.1559 O   0  0  0  0  0  0  0  0  0  0  0  0
  -31.6452    1.4147   27.7685 O   0  0  0  0  0  0  0  0  0  0  0  0
  -31.1826    1.8097   29.8542 O   0  0  0  0  0  0  0  0  0  0  0  0
  -32.3073    2.1623   30.2909 C   0  0  0  0  0  0  0  0  0  0  0  0
  -32.6086    3.4808   30.3444 C   0  0  0  0  0  0  0  0  0  0  0  0
  -31.5813    4.4008   30.4661 C   0  0  0  0  0  0  0  0  0  0  0  0
  -30.3704    4.0576   31.0698 C   0  0  0  0  0  0  0  0  0  0  0  0
  -30.3563    3.8902   32.4204 C   0  0  0  0  0  0  0  0  0  0  0  0
  -29.0995    3.5155   33.0762 C   0  0  0  0  0  0  0  0  0  0  0  0
  -27.9363    3.3314   32.2814 C   0  0  0  0  0  0  0  0  0  0  0  0
  -27.9998    3.5371   30.9199 C   0  0  0  0  0  0  0  0  0  0  0  0
  -29.1966    3.8934   30.3372 C   0  0  0  0  0  0  0  0  0  0  0  0
  -26.5608    3.3687   30.0638 Cl  0  0  0  0  0  0  0  0  0  0  0  0
  -31.6385    5.7462   29.9176 C   0  0  0  0  0  0  0  0  0  0  0  0
  -31.2311    6.7098   30.3131 C   0  0  0  0  0  0  0  0  0  0  0  0
  -31.2978    8.0481   29.7270 C   0  0  0  0  0  0  0  0  0  0  0  0
  2  3  1  0
  3  4  1  0
  4  5  1  0
  5  6  1  0
  5  9  1  0
  9 10  2  0
  9 11  1  0
 12 13  1  0
 11 15  1  0
  4 16  1  0
 15 16  1  0
  3 17  2  0
 13 18  2  0
 13 19  1  0
 19 20  1  0
 20 21  2  3
 21 22  1  0
 22 23  1  0
 27 29  1  0
 22 30  1  0
 30 31  2  3
 31 32  1  0
  7  6  1  0
 23 24  2  0
 24 25  1  0
 25 26  2  0
 26 27  1  0
 27 28  2  0
 28 23  1  0
  1  2  2  0
  2  7  1  0
  7 14  2  0
 14 12  1  0
 12  8  2  0
  8  1  1  0
M  END

$$$$
