No_3762-gen_results/8p0m/2024-11-27-11-27-31/
     RDKit          3D

 20 21  0  0  0  0  0  0  0  0999 V2000
  -28.0162   -0.8135   28.8779 C   0  0  0  0  0  0  0  0  0  0  0  0
  -28.4690   -0.7850   29.8287 C   0  0  0  0  0  0  0  0  0  0  0  0
  -27.1356    0.2359   28.5352 C   0  0  0  0  0  0  0  0  0  0  0  0
  -26.8745    1.2825   29.3982 C   0  0  0  0  0  0  0  0  0  0  0  0
  -27.5070    1.2380   30.6295 C   0  0  0  0  0  0  0  0  0  0  0  0
  -28.3293    0.1745   30.9350 C   0  0  0  0  0  0  0  0  0  0  0  0
  -26.4077    0.3070   27.2259 C   0  0  0  0  0  0  0  0  0  0  0  0
  -26.8748    0.8389   26.2127 C   0  0  0  0  0  0  0  0  0  0  0  0
  -25.0813   -0.2883   27.1835 C   0  0  0  0  0  0  0  0  0  0  0  0
  -28.1776    1.4121   26.1391 C   0  0  0  0  0  0  0  0  0  0  0  0
  -29.1025    1.0983   25.7418 C   0  0  0  0  0  0  0  0  0  0  0  0
  -29.2651   -0.2903   25.2660 C   0  0  0  0  0  0  0  0  0  0  0  0
  -30.5436   -0.8103   24.7737 C   0  0  0  0  0  0  0  0  0  0  0  0
  -26.1816    0.4421   24.9955 C   0  0  0  0  0  0  0  0  0  0  0  0
  -30.3996    1.7936   25.6333 C   0  0  0  0  0  0  0  0  0  0  0  0
  -31.6170    1.2831   25.1729 C   0  0  0  0  0  0  0  0  0  0  0  0
  -31.6131   -0.0528   24.6865 C   0  0  0  0  0  0  0  0  0  0  0  0
  -27.8606    2.9742   26.0381 C   0  0  0  0  0  0  0  0  0  0  0  0
  -24.4462   -0.5863   28.5441 C   0  0  0  0  0  0  0  0  0  0  0  0
  -24.9684   -0.0653   24.9304 C   0  0  0  0  0  0  0  0  0  0  0  0
  3  7  1  0
  7  8  1  0
  7  9  1  0
  8 10  1  0
  8 14  1  0
 10 18  1  0
  9 19  2  0
 14 20  2  0
 10 11  1  0
  1  2  2  0
  2  6  1  0
  6  5  2  0
  5  4  1  0
  4  3  2  0
  3  1  1  0
 11 12  2  0
 12 13  1  0
 13 17  2  0
 17 16  1  0
 16 15  2  0
 15 11  1  0
M  END

$$$$
