No_3655-gen_results/8p0m/2024-11-27-11-27-31/
     RDKit          3D

 20 21  0  0  0  0  0  0  0  0999 V2000
  -28.1229   -1.3353   28.4874 O   0  0  0  0  0  0  0  0  0  0  0  0
  -27.0637   -0.8242   28.8687 C   0  0  0  0  0  0  0  0  0  0  0  0
  -26.4017   -0.0623   28.6224 C   0  0  0  0  0  0  0  0  0  0  0  0
  -26.5721   -1.5845   30.1172 N   0  0  0  0  0  0  0  0  0  0  0  0
  -25.0209    0.3561   29.0444 C   0  0  0  0  0  0  0  0  0  0  0  0
  -24.6541   -0.3468   30.2523 C   0  0  0  0  0  0  0  0  0  0  0  0
  -25.4243   -1.3432   30.6966 C   0  0  0  0  0  0  0  0  0  0  0  0
  -26.7002    0.8074   27.3382 C   0  0  0  0  0  0  0  0  0  0  0  0
  -26.2415    2.0462   27.3108 Br  0  0  0  0  0  0  0  0  0  0  0  0
  -27.3757    0.0873   26.2752 C   0  0  0  0  0  0  0  0  0  0  0  0
  -27.4623   -2.6860   30.5984 C   0  0  0  0  0  0  0  0  0  0  0  0
  -28.0910    0.9678   25.3644 C   0  0  0  0  0  0  0  0  0  0  0  0
  -28.4795    1.9579   25.5521 C   0  0  0  0  0  0  0  0  0  0  0  0
  -28.3648    0.0925   24.1093 C   0  0  0  0  0  0  0  0  0  0  0  0
  -29.4370    2.6702   24.5678 C   0  0  0  0  0  0  0  0  0  0  0  0
  -29.7351    2.0374   23.3707 C   0  0  0  0  0  0  0  0  0  0  0  0
  -29.2203    0.7635   23.2525 C   0  0  0  0  0  0  0  0  0  0  0  0
  -27.3278   -3.8974   29.9213 C   0  0  0  0  0  0  0  0  0  0  0  0
  -26.2229   -4.2265   29.4021 O   0  0  0  0  0  0  0  0  0  0  0  0
  -28.2433   -4.7387   30.0156 O   0  0  0  0  0  0  0  0  0  0  0  0
  1  2  2  0
  2  3  1  0
  2  4  1  0
  3  5  1  0
  4  7  1  0
  6  7  1  0
  3  8  1  0
  8  9  1  0
  8 10  1  0
  4 11  1  0
 10 12  1  0
 11 18  1  0
 18 19  2  0
 18 20  1  0
  5  6  1  0
 12 13  2  0
 13 15  1  0
 15 16  2  0
 16 17  1  0
 17 14  2  0
 14 12  1  0
M  END

$$$$
