No_3576-gen_results/8p0m/2024-11-27-11-27-31/
     RDKit          3D

 26 27  0  0  0  0  0  0  0  0999 V2000
  -28.0162   -0.8135   28.8779 C   0  0  0  0  0  0  0  0  0  0  0  0
  -27.0636   -0.1189   28.6079 C   0  0  0  0  0  0  0  0  0  0  0  0
  -26.9716    0.7139   27.5060 C   0  0  0  0  0  0  0  0  0  0  0  0
  -25.8205    1.4910   27.1160 C   0  0  0  0  0  0  0  0  0  0  0  0
  -24.8579    1.3421   27.6008 C   0  0  0  0  0  0  0  0  0  0  0  0
  -24.6224    0.5295   28.8144 C   0  0  0  0  0  0  0  0  0  0  0  0
  -25.7344   -0.1811   29.1908 C   0  0  0  0  0  0  0  0  0  0  0  0
  -28.6269   -0.4745   30.2487 C   0  0  0  0  0  0  0  0  0  0  0  0
  -29.7287   -1.2771   30.7236 C   0  0  0  0  0  0  0  0  0  0  0  0
  -23.5103    2.1338   27.3073 C   0  0  0  0  0  0  0  0  0  0  0  0
  -22.5333    2.1914   28.1368 N   0  0  0  0  0  0  0  0  0  0  0  0
  -23.4591    2.7800   26.1903 O   0  0  0  0  0  0  0  0  0  0  0  0
  -30.0848   -2.1854   30.0000 C   0  0  0  0  0  0  0  0  0  0  0  0
  -31.2650   -2.9298   30.5354 C   0  0  0  0  0  0  0  0  0  0  0  0
  -31.7251   -4.0272   29.7553 C   0  0  0  0  0  0  0  0  0  0  0  0
  -32.1417   -3.6458   28.4944 C   0  0  0  0  0  0  0  0  0  0  0  0
  -32.1850   -4.7742   27.6377 C   0  0  0  0  0  0  0  0  0  0  0  0
  -32.5194   -4.5352   26.2877 C   0  0  0  0  0  0  0  0  0  0  0  0
  -32.6538   -3.1742   25.7778 C   0  0  0  0  0  0  0  0  0  0  0  0
  -32.4951   -2.1593   26.6707 C   0  0  0  0  0  0  0  0  0  0  0  0
  -32.1936   -2.4030   27.9894 C   0  0  0  0  0  0  0  0  0  0  0  0
  -31.8318   -5.3212   30.3161 C   0  0  0  0  0  0  0  0  0  0  0  0
  -32.8344   -5.5898   31.0479 C   0  0  0  0  0  0  0  0  0  0  0  0
  -32.9636   -6.9083   31.6253 C   0  0  0  0  0  0  0  0  0  0  0  0
  -32.0080   -7.8670   31.2601 C   0  0  0  0  0  0  0  0  0  0  0  0
  -30.9533   -7.5896   30.4295 C   0  0  0  0  0  0  0  0  0  0  0  0
  1  8  1  0
  8  9  1  0
  5 10  1  0
 10 11  1  0
 10 12  2  0
  9 13  2  3
 13 14  1  0
 14 15  1  0
 15 16  1  0
 15 22  1  0
 22 23  2  3
 23 24  1  0
 24 25  2  3
 25 26  1  0
  1  2  1  0
  2  3  2  0
  3  4  1  0
  4  5  2  0
  5  6  1  0
  6  7  2  0
  7  2  1  0
 16 17  2  0
 17 18  1  0
 18 19  2  0
 19 20  1  0
 20 21  2  0
 21 16  1  0
M  END

$$$$
