No_3583-gen_results/8p0m/2024-11-27-11-27-31/
     RDKit          3D

 35 38  0  0  0  0  0  0  0  0999 V2000
  -28.0162   -0.8135   28.8779 C   0  0  0  0  0  0  0  0  0  0  0  0
  -28.4690   -0.7850   29.8287 C   0  0  0  0  0  0  0  0  0  0  0  0
  -27.1356    0.2359   28.5352 C   0  0  0  0  0  0  0  0  0  0  0  0
  -26.8745    1.2825   29.3982 C   0  0  0  0  0  0  0  0  0  0  0  0
  -28.3613    0.1987   30.9244 C   0  0  0  0  0  0  0  0  0  0  0  0
  -27.5277    1.2234   30.6356 C   0  0  0  0  0  0  0  0  0  0  0  0
  -26.4533    0.0749   27.2390 C   0  0  0  0  0  0  0  0  0  0  0  0
  -25.7051    1.2405   26.7726 C   0  0  0  0  0  0  0  0  0  0  0  0
  -24.5735    1.3535   26.8861 C   0  0  0  0  0  0  0  0  0  0  0  0
  -23.6150    0.4620   27.5697 C   0  0  0  0  0  0  0  0  0  0  0  0
  -22.2803    0.9247   27.8814 C   0  0  0  0  0  0  0  0  0  0  0  0
  -21.4130    0.1787   28.6697 C   0  0  0  0  0  0  0  0  0  0  0  0
  -21.8858   -1.0067   29.2600 C   0  0  0  0  0  0  0  0  0  0  0  0
  -23.2373   -1.3411   29.0819 C   0  0  0  0  0  0  0  0  0  0  0  0
  -24.0875   -0.5553   28.3437 C   0  0  0  0  0  0  0  0  0  0  0  0
  -23.8290    2.5123   26.1612 C   0  0  0  0  0  0  0  0  0  0  0  0
  -26.6129    2.0862   25.9546 C   0  0  0  0  0  0  0  0  0  0  0  0
  -23.7638   -2.5690   29.7078 C   0  0  0  0  0  0  0  0  0  0  0  0
  -24.9993   -2.9044   29.3048 C   0  0  0  0  0  0  0  0  0  0  0  0
  -25.6180   -4.1125   29.7893 C   0  0  0  0  0  0  0  0  0  0  0  0
  -27.0763   -4.2239   29.6201 C   0  0  0  0  0  0  0  0  0  0  0  0
  -27.8859   -4.1578   30.8550 C   0  0  0  0  0  0  0  0  0  0  0  0
  -29.2910   -4.4726   30.7505 C   0  0  0  0  0  0  0  0  0  0  0  0
  -30.1930   -3.8250   31.4917 C   0  0  0  0  0  0  0  0  0  0  0  0
  -29.7596   -3.3382   32.7616 C   0  0  0  0  0  0  0  0  0  0  0  0
  -28.4431   -2.9214   32.8188 C   0  0  0  0  0  0  0  0  0  0  0  0
  -27.5892   -3.1655   31.8451 C   0  0  0  0  0  0  0  0  0  0  0  0
  -27.2731    2.3213   31.6380 C   0  0  0  0  0  0  0  0  0  0  0  0
  -27.4057    2.2942   32.7157 C   0  0  0  0  0  0  0  0  0  0  0  0
  -27.1881    3.4109   33.6882 C   0  0  0  0  0  0  0  0  0  0  0  0
  -26.6770    4.5954   33.1287 C   0  0  0  0  0  0  0  0  0  0  0  0
  -26.4116    4.6421   31.7579 C   0  0  0  0  0  0  0  0  0  0  0  0
  -26.6684    3.5228   30.9434 C   0  0  0  0  0  0  0  0  0  0  0  0
  -31.6097   -4.3530   31.4212 C   0  0  0  0  0  0  0  0  0  0  0  0
  -32.5512   -3.8231   31.6983 C   0  0  0  0  0  0  0  0  0  0  0  0
  3  7  1  0
  7  8  1  0
  8  9  2  3
  9 10  1  0
  9 16  1  0
  8 17  1  0
 14 18  1  0
 18 19  1  0
 19 20  2  3
 20 21  1  0
  6 28  1  0
 24 34  1  0
 34 35  2  0
 21 22  1  0
 28 29  2  0
 29 30  1  0
 30 31  2  0
 31 32  1  0
 32 33  2  0
 33 28  1  0
 22 23  2  0
 23 24  1  0
 24 25  2  0
 25 26  1  0
 26 27  2  0
 27 22  1  0
  1  2  2  0
  2  5  1  0
  5  6  2  0
  6  4  1  0
  4  3  2  0
  3  1  1  0
 10 11  2  0
 11 12  1  0
 12 13  2  0
 13 14  1  0
 14 15  2  0
 15 10  1  0
M  END

$$$$
