No_3096-gen_results/8p0m/2024-11-27-11-27-31/
     RDKit          3D

 10 10  0  0  0  0  0  0  0  0999 V2000
  -28.0162   -0.8135   28.8779 C   0  0  0  0  0  0  0  0  0  0  0  0
  -28.4690   -0.7850   29.8287 C   0  0  0  0  0  0  0  0  0  0  0  0
  -27.0871    0.2903   28.6377 C   0  0  0  0  0  0  0  0  0  0  0  0
  -26.8317    1.2487   29.5869 C   0  0  0  0  0  0  0  0  0  0  0  0
  -29.4442   -1.9481   30.1840 C   0  0  0  0  0  0  0  0  0  0  0  0
  -27.4956    1.1303   30.8222 C   0  0  0  0  0  0  0  0  0  0  0  0
  -28.3376    0.0364   31.0331 C   0  0  0  0  0  0  0  0  0  0  0  0
  -30.5156   -1.8345   30.1119 N   0  0  0  0  0  0  0  0  0  0  0  0
  -28.9097   -2.9724   30.8775 O   0  0  0  0  0  0  0  0  0  0  0  0
  -31.5186   -2.9188   30.2957 C   0  0  0  0  0  0  0  0  0  0  0  0
  2  5  1  0
  5  8  1  0
  5  9  2  0
  8 10  1  0
  1  2  2  0
  2  7  1  0
  7  6  2  0
  6  4  1  0
  4  3  2  0
  3  1  1  0
M  END

$$$$
