No_3530-gen_results/8p0m/2024-11-27-11-27-31/
     RDKit          3D

  7  7  0  0  0  0  0  0  0  0999 V2000
  -28.1229   -1.3353   28.4874 O   0  0  0  0  0  0  0  0  0  0  0  0
  -27.0637   -0.8242   28.8687 C   0  0  0  0  0  0  0  0  0  0  0  0
  -26.4017   -0.0623   28.6224 C   0  0  0  0  0  0  0  0  0  0  0  0
  -26.3805   -1.7991   29.9619 N   0  0  0  0  0  0  0  0  0  0  0  0
  -25.0334    0.3743   29.0484 C   0  0  0  0  0  0  0  0  0  0  0  0
  -24.5478   -0.4979   30.1191 C   0  0  0  0  0  0  0  0  0  0  0  0
  -25.2384   -1.5639   30.4817 C   0  0  0  0  0  0  0  0  0  0  0  0
  1  2  2  0
  2  3  1  0
  2  4  1  0
  3  5  3  0
  5  6  1  0
  6  7  1  0
  7  4  1  0
M  END

$$$$
