No_3482-gen_results/8p0m/2024-11-27-11-27-31/
     RDKit          3D

 13 13  0  0  0  0  0  0  0  0999 V2000
  -28.1229   -1.3353   28.4874 O   0  0  0  0  0  0  0  0  0  0  0  0
  -27.4806   -0.4044   28.7094 C   0  0  0  0  0  0  0  0  0  0  0  0
  -26.3804   -0.0867   27.9394 C   0  0  0  0  0  0  0  0  0  0  0  0
  -27.6664    0.4468   29.8988 N   0  0  0  0  0  0  0  0  0  0  0  0
  -25.1773   -0.4388   28.3946 C   0  0  0  0  0  0  0  0  0  0  0  0
  -26.5259    0.6036   26.6867 C   0  0  0  0  0  0  0  0  0  0  0  0
  -24.1813    0.0892   28.4567 C   0  0  0  0  0  0  0  0  0  0  0  0
  -23.9872    1.0892   27.2460 C   0  0  0  0  0  0  0  0  0  0  0  0
  -25.1328    1.3551   26.4950 C   0  0  0  0  0  0  0  0  0  0  0  0
  -28.5078    0.4194   30.6512 C   0  0  0  0  0  0  0  0  0  0  0  0
  -22.7675    1.8606   27.0426 C   0  0  0  0  0  0  0  0  0  0  0  0
  -29.3030    1.1596   30.9402 C   0  0  0  0  0  0  0  0  0  0  0  0
  -30.3654    1.1029   31.9599 C   0  0  0  0  0  0  0  0  0  0  0  0
  1  2  2  0
  2  3  1  0
  2  4  1  0
  4 10  1  0
  8 11  1  0
 10 12  2  3
 12 13  1  0
  3  5  2  0
  5  7  1  0
  7  8  2  0
  8  9  1  0
  9  6  2  0
  6  3  1  0
M  END

$$$$
