No_3772-gen_results/8p0m/2024-11-27-11-27-31/
     RDKit          3D

 11 11  0  0  0  0  0  0  0  0999 V2000
  -28.0162   -0.8135   28.8779 C   0  0  0  0  0  0  0  0  0  0  0  0
  -28.4690   -0.7850   29.8287 C   0  0  0  0  0  0  0  0  0  0  0  0
  -28.1816    0.4277   28.1134 C   0  0  0  0  0  0  0  0  0  0  0  0
  -27.4498    0.6435   26.8500 C   0  0  0  0  0  0  0  0  0  0  0  0
  -26.1815    0.0357   26.7145 C   0  0  0  0  0  0  0  0  0  0  0  0
  -25.7800   -0.9326   27.6938 C   0  0  0  0  0  0  0  0  0  0  0  0
  -26.5568   -1.2134   28.7413 C   0  0  0  0  0  0  0  0  0  0  0  0
  -29.6489   -0.2418   30.2163 C   0  0  0  0  0  0  0  0  0  0  0  0
  -30.0654    0.8245   29.3455 C   0  0  0  0  0  0  0  0  0  0  0  0
  -29.3622    1.1297   28.2012 C   0  0  0  0  0  0  0  0  0  0  0  0
  -29.8001    2.0927   27.2812 C   0  0  0  0  0  0  0  0  0  0  0  0
  1  2  1  0
  2  8  2  3
  8  9  1  0
  3 10  1  0
 10 11  1  0
  1  3  2  0
  3  4  1  0
  4  5  2  0
  5  6  1  0
  6  7  2  0
  7  1  1  0
M  END

$$$$
