No_3344-gen_results/8p0m/2024-11-27-11-27-31/
     RDKit          3D

 21 22  0  0  0  0  0  0  0  0999 V2000
  -28.0162   -0.8135   28.8779 C   0  0  0  0  0  0  0  0  0  0  0  0
  -28.4690   -0.7850   29.8287 C   0  0  0  0  0  0  0  0  0  0  0  0
  -26.5042   -0.7777   28.8766 C   0  0  0  0  0  0  0  0  0  0  0  0
  -25.8103   -0.8531   30.1028 C   0  0  0  0  0  0  0  0  0  0  0  0
  -27.9906   -0.8916   31.2257 C   0  0  0  0  0  0  0  0  0  0  0  0
  -26.6042   -0.8676   31.2652 C   0  0  0  0  0  0  0  0  0  0  0  0
  -24.3894   -0.8049   30.1638 C   0  0  0  0  0  0  0  0  0  0  0  0
  -23.9278   -1.4687   31.0152 F   0  0  0  0  0  0  0  0  0  0  0  0
  -23.9684    0.4939   30.4139 F   0  0  0  0  0  0  0  0  0  0  0  0
  -23.9006   -0.8804   28.8649 F   0  0  0  0  0  0  0  0  0  0  0  0
  -25.5363   -2.2948   29.8943 F   0  0  0  0  0  0  0  0  0  0  0  0
  -25.8941   -0.4492   27.7702 O   0  0  0  0  0  0  0  0  0  0  0  0
  -26.4210    0.4272   26.7907 C   0  0  0  0  0  0  0  0  0  0  0  0
  -25.7705    0.4144   25.5803 C   0  0  0  0  0  0  0  0  0  0  0  0
  -27.4300    1.2726   26.9461 C   0  0  0  0  0  0  0  0  0  0  0  0
  -27.8013    2.0936   25.9304 C   0  0  0  0  0  0  0  0  0  0  0  0
  -27.4133    1.8978   24.6494 C   0  0  0  0  0  0  0  0  0  0  0  0
  -26.2277    1.0290   24.4923 C   0  0  0  0  0  0  0  0  0  0  0  0
  -30.0771   -0.6208   29.9219 C   0  0  0  0  0  0  0  0  0  0  0  0
  -30.6238   -0.4150   29.0536 O   0  0  0  0  0  0  0  0  0  0  0  0
  -30.6866   -0.8289   31.0824 O   0  0  0  0  0  0  0  0  0  0  0  0
  1  2  1  0
  1  3  2  0
  3  4  1  0
  2  5  2  0
  4  6  1  0
  5  6  1  0
  4  7  1  0
  7  8  1  0
  7  9  1  0
  7 10  1  0
  4 11  1  0
  3 12  1  0
 12 13  1  0
  2 19  1  0
 19 20  2  0
 19 21  1  0
 13 14  2  0
 14 18  1  0
 18 17  2  0
 17 16  1  0
 16 15  2  0
 15 13  1  0
M  END

$$$$
