No_3640-gen_results/8p0m/2024-11-27-11-27-31/
     RDKit          3D

 35 38  0  0  0  0  0  0  0  0999 V2000
  -28.0162   -0.8135   28.8779 C   0  0  0  0  0  0  0  0  0  0  0  0
  -27.0636   -0.1189   28.6079 C   0  0  0  0  0  0  0  0  0  0  0  0
  -27.0010    0.6913   27.4910 C   0  0  0  0  0  0  0  0  0  0  0  0
  -25.8548    1.4825   27.0830 C   0  0  0  0  0  0  0  0  0  0  0  0
  -24.6901    1.4526   27.8807 C   0  0  0  0  0  0  0  0  0  0  0  0
  -24.7379    0.6010   29.0416 C   0  0  0  0  0  0  0  0  0  0  0  0
  -25.8234   -0.1688   29.3887 C   0  0  0  0  0  0  0  0  0  0  0  0
  -29.2150   -0.1726   29.0132 N   0  0  0  0  0  0  0  0  0  0  0  0
  -30.2463   -0.7736   29.6388 C   0  0  0  0  0  0  0  0  0  0  0  0
  -23.5190    2.2034   27.5550 C   0  0  0  0  0  0  0  0  0  0  0  0
  -22.6092    2.2710   28.3427 O   0  0  0  0  0  0  0  0  0  0  0  0
  -23.2567    2.3974   26.2372 O   0  0  0  0  0  0  0  0  0  0  0  0
  -31.5440   -0.4924   29.2573 C   0  0  0  0  0  0  0  0  0  0  0  0
  -30.0770   -1.5948   30.5975 O   0  0  0  0  0  0  0  0  0  0  0  0
  -31.8351    0.4387   28.6454 O   0  0  0  0  0  0  0  0  0  0  0  0
  -32.5690   -1.4185   29.5532 N   0  0  0  0  0  0  0  0  0  0  0  0
  -33.8896   -1.2819   29.1077 C   0  0  0  0  0  0  0  0  0  0  0  0
  -34.5205   -2.2552   29.0205 C   0  0  0  0  0  0  0  0  0  0  0  0
  -34.1844   -3.3998   29.6859 C   0  0  0  0  0  0  0  0  0  0  0  0
  -32.8650   -3.5958   30.1737 C   0  0  0  0  0  0  0  0  0  0  0  0
  -32.0511   -2.6581   29.9901 C   0  0  0  0  0  0  0  0  0  0  0  0
  -27.9290   -1.9536   29.3528 O   0  0  0  0  0  0  0  0  0  0  0  0
  -32.5042   -4.9770   30.6769 C   0  0  0  0  0  0  0  0  0  0  0  0
  -33.2915   -5.7635   30.7048 F   0  0  0  0  0  0  0  0  0  0  0  0
  -31.9688   -4.7665   31.9893 F   0  0  0  0  0  0  0  0  0  0  0  0
  -31.3561   -5.3790   30.0281 F   0  0  0  0  0  0  0  0  0  0  0  0
  -28.1307    0.8798   26.6123 C   0  0  0  0  0  0  0  0  0  0  0  0
  -27.9794    0.6204   25.2821 C   0  0  0  0  0  0  0  0  0  0  0  0
  -29.1088    0.6682   24.4136 C   0  0  0  0  0  0  0  0  0  0  0  0
  -30.3837    0.8070   24.8931 C   0  0  0  0  0  0  0  0  0  0  0  0
  -30.5095    1.0814   26.2971 C   0  0  0  0  0  0  0  0  0  0  0  0
  -29.4321    1.1029   27.0926 C   0  0  0  0  0  0  0  0  0  0  0  0
  -29.4488    1.1276   28.6226 C   0  0  0  0  0  0  0  0  0  0  0  0
  -31.4038    0.9273   24.0686 O   0  0  0  0  0  0  0  0  0  0  0  0
  -32.6485    0.7713   24.4738 C   0  0  0  0  0  0  0  0  0  0  0  0
  1  2  1  0
  1  8  1  0
  8  9  1  0
  5 10  1  0
 10 11  2  0
 10 12  1  0
  9 13  1  0
  9 14  2  0
 13 15  2  0
 13 16  1  0
 16 17  1  0
 18 19  1  0
 16 21  1  0
 20 21  1  0
  1 22  2  0
 20 23  1  0
 23 24  1  0
 23 25  1  0
 23 26  1  0
  3 27  1  0
  8 33  1  0
 32 33  1  0
 30 34  1  0
 34 35  1  0
 17 18  1  0
 19 20  1  0
  2  3  2  0
  3  4  1  0
  4  5  2  0
  5  6  1  0
  6  7  2  0
  7  2  1  0
 27 28  2  0
 28 29  1  0
 29 30  2  0
 30 31  1  0
 31 32  2  0
 32 27  1  0
M  END

$$$$
