No_3977-gen_results/8p0m/2024-11-27-11-27-31/
     RDKit          3D

 23 25  0  0  0  0  0  0  0  0999 V2000
  -28.0162   -0.8135   28.8779 C   0  0  0  0  0  0  0  0  0  0  0  0
  -28.4690   -0.7850   29.8287 C   0  0  0  0  0  0  0  0  0  0  0  0
  -26.5042   -0.7777   28.8766 C   0  0  0  0  0  0  0  0  0  0  0  0
  -25.8103   -0.8531   30.1028 C   0  0  0  0  0  0  0  0  0  0  0  0
  -27.9906   -0.8916   31.2257 C   0  0  0  0  0  0  0  0  0  0  0  0
  -26.6042   -0.8676   31.2652 C   0  0  0  0  0  0  0  0  0  0  0  0
  -30.0739   -0.8360   29.8615 C   0  0  0  0  0  0  0  0  0  0  0  0
  -30.7170    0.0956   30.4784 N   0  0  0  0  0  0  0  0  0  0  0  0
  -31.4241    0.8594   30.2262 C   0  0  0  0  0  0  0  0  0  0  0  0
  -32.0927    1.8304   31.1102 C   0  0  0  0  0  0  0  0  0  0  0  0
  -31.8033    1.0084   28.8464 N   0  0  0  0  0  0  0  0  0  0  0  0
  -31.8597    1.6944   32.3046 F   0  0  0  0  0  0  0  0  0  0  0  0
  -32.9457    2.8134   30.6582 C   0  0  0  0  0  0  0  0  0  0  0  0
  -33.2334    2.8422   29.3300 N   0  0  0  0  0  0  0  0  0  0  0  0
  -32.6292    1.9782   28.4429 C   0  0  0  0  0  0  0  0  0  0  0  0
  -30.6787   -1.5613   29.1246 O   0  0  0  0  0  0  0  0  0  0  0  0
  -32.9002    2.0184   27.1156 N   0  0  0  0  0  0  0  0  0  0  0  0
  -24.3878   -0.8489   30.1375 C   0  0  0  0  0  0  0  0  0  0  0  0
  -23.6760   -1.3174   30.7910 C   0  0  0  0  0  0  0  0  0  0  0  0
  -23.7908   -0.0342   28.9963 C   0  0  0  0  0  0  0  0  0  0  0  0
  -22.3791    0.1252   28.9868 C   0  0  0  0  0  0  0  0  0  0  0  0
  -22.2133   -1.2442   30.9391 C   0  0  0  0  0  0  0  0  0  0  0  0
  -21.6315   -0.5088   29.8934 C   0  0  0  0  0  0  0  0  0  0  0  0
  2  7  1  0
  7  8  1  0
  8  9  1  0
 10 12  1  0
  7 16  2  0
 15 17  1  0
  4 18  1  0
  9 10  2  0
 10 13  1  0
 13 14  2  0
 14 15  1  0
 15 11  2  0
 11  9  1  0
 18 19  2  0
 19 22  1  0
 22 23  2  0
 23 21  1  0
 21 20  2  0
 20 18  1  0
  1  2  2  0
  2  5  1  0
  5  6  2  0
  6  4  1  0
  4  3  2  0
  3  1  1  0
M  END

$$$$
