No_386-gen_results/8p0m/2024-11-27-11-27-31/
     RDKit          3D

 20 22  0  0  0  0  0  0  0  0999 V2000
  -28.0162   -0.8135   28.8779 C   0  0  0  0  0  0  0  0  0  0  0  0
  -28.4690   -0.7850   29.8287 C   0  0  0  0  0  0  0  0  0  0  0  0
  -28.1816    0.4277   28.1134 C   0  0  0  0  0  0  0  0  0  0  0  0
  -27.0280    0.9338   27.5279 C   0  0  0  0  0  0  0  0  0  0  0  0
  -29.8654   -0.6573   30.0468 C   0  0  0  0  0  0  0  0  0  0  0  0
  -30.4269    0.4083   29.2782 C   0  0  0  0  0  0  0  0  0  0  0  0
  -29.4534    1.0239   28.2030 C   0  0  0  0  0  0  0  0  0  0  0  0
  -25.8552    0.2476   27.3136 C   0  0  0  0  0  0  0  0  0  0  0  0
  -24.7483    0.7880   26.6258 C   0  0  0  0  0  0  0  0  0  0  0  0
  -24.8314    2.1393   26.2264 C   0  0  0  0  0  0  0  0  0  0  0  0
  -25.9189    2.9058   26.4433 C   0  0  0  0  0  0  0  0  0  0  0  0
  -27.0206    2.3254   27.0748 C   0  0  0  0  0  0  0  0  0  0  0  0
  -31.6913    0.9850   29.4019 C   0  0  0  0  0  0  0  0  0  0  0  0
  -31.7405    2.1735   29.9937 C   0  0  0  0  0  0  0  0  0  0  0  0
  -30.6460    2.7342   30.6204 C   0  0  0  0  0  0  0  0  0  0  0  0
  -30.7389    4.0854   31.2020 C   0  0  0  0  0  0  0  0  0  0  0  0
  -29.6025    4.6843   31.8427 C   0  0  0  0  0  0  0  0  0  0  0  0
  -28.3624    3.9893   31.8365 C   0  0  0  0  0  0  0  0  0  0  0  0
  -28.2910    2.7187   31.2214 C   0  0  0  0  0  0  0  0  0  0  0  0
  -29.3801    2.2208   30.6550 C   0  0  0  0  0  0  0  0  0  0  0  0
  3  4  1  0
  6 13  1  0
 13 14  2  3
 14 15  1  0
  4  8  2  0
  8  9  1  0
  9 10  2  0
 10 11  1  0
 11 12  2  0
 12  4  1  0
 15 16  2  0
 16 17  1  0
 17 18  2  0
 18 19  1  0
 19 20  2  0
 20 15  1  0
  1  2  2  0
  2  5  1  0
  5  6  2  0
  6  7  1  0
  7  3  2  0
  3  1  1  0
M  END

$$$$
