No_322-gen_results/8p0m/2024-11-27-11-27-31/
     RDKit          3D

 25 27  0  0  0  0  0  0  0  0999 V2000
  -28.0162   -0.8135   28.8779 C   0  0  0  0  0  0  0  0  0  0  0  0
  -27.0636   -0.1189   28.6079 C   0  0  0  0  0  0  0  0  0  0  0  0
  -26.9716    0.7139   27.5060 C   0  0  0  0  0  0  0  0  0  0  0  0
  -28.1053    0.7744   26.6421 C   0  0  0  0  0  0  0  0  0  0  0  0
  -29.2041    0.1179   27.0477 C   0  0  0  0  0  0  0  0  0  0  0  0
  -29.2127   -0.6088   28.1281 C   0  0  0  0  0  0  0  0  0  0  0  0
  -25.7106    1.4518   27.1380 C   0  0  0  0  0  0  0  0  0  0  0  0
  -25.2074    2.4128   27.9320 C   0  0  0  0  0  0  0  0  0  0  0  0
  -25.5898    2.8790   29.0377 C   0  0  0  0  0  0  0  0  0  0  0  0
  -23.9972    3.1229   27.2426 C   0  0  0  0  0  0  0  0  0  0  0  0
  -25.0134    0.9237   25.9547 C   0  0  0  0  0  0  0  0  0  0  0  0
  -23.2742    2.6143   26.1746 C   0  0  0  0  0  0  0  0  0  0  0  0
  -23.8859    1.5870   25.4493 C   0  0  0  0  0  0  0  0  0  0  0  0
  -25.1524    2.3575   30.2785 C   0  0  0  0  0  0  0  0  0  0  0  0
  -26.6771    3.8641   29.1162 C   0  0  0  0  0  0  0  0  0  0  0  0
  -27.6665    3.7927   30.1313 C   0  0  0  0  0  0  0  0  0  0  0  0
  -25.8976    2.5811   31.4985 C   0  0  0  0  0  0  0  0  0  0  0  0
  -27.0556    3.4644   31.4787 C   0  0  0  0  0  0  0  0  0  0  0  0
  -23.9578    1.5839   30.3924 C   0  0  0  0  0  0  0  0  0  0  0  0
  -24.0537    0.4201   30.9006 O   0  0  0  0  0  0  0  0  0  0  0  0
  -22.8445    2.0082   29.9511 O   0  0  0  0  0  0  0  0  0  0  0  0
  -28.0570    1.8634   25.2199 P   0  0  0  0  0  0  0  0  0  0  0  0
  -27.4672    1.1988   24.1830 O   0  0  0  0  0  0  0  0  0  0  0  0
  -27.2819    3.1136   25.6365 O   0  0  0  0  0  0  0  0  0  0  0  0
  -29.3958    2.3711   25.0574 O   0  0  0  0  0  0  0  0  0  0  0  0
  3  7  1  0
  8  9  1  0
 14 19  1  0
 19 20  2  0
 19 21  1  0
  4 22  1  0
 22 23  1  0
 22 24  1  0
 22 25  2  0
  7  8  1  0
  8 10  2  0
 10 12  1  0
 12 13  2  0
 13 11  1  0
 11  7  2  0
  1  2  2  0
  2  3  1  0
  3  4  2  0
  4  5  1  0
  5  6  2  0
  6  1  1  0
  9 14  2  0
 14 17  1  0
 17 18  2  0
 18 16  1  0
 16 15  2  0
 15  9  1  0
M  END

$$$$
