No_3237-gen_results/8p0m/2024-11-27-11-27-31/
     RDKit          3D

 16 17  0  0  0  0  0  0  0  0999 V2000
  -28.1493   -0.8198   28.9079 Cl  0  0  0  0  0  0  0  0  0  0  0  0
  -27.8339    0.4961   29.0598 C   0  0  0  0  0  0  0  0  0  0  0  0
  -27.5135    1.2383   28.0485 C   0  0  0  0  0  0  0  0  0  0  0  0
  -27.0548    2.6251   28.1330 C   0  0  0  0  0  0  0  0  0  0  0  0
  -26.9438    3.1838   29.4305 C   0  0  0  0  0  0  0  0  0  0  0  0
  -27.2205    2.3582   30.5116 C   0  0  0  0  0  0  0  0  0  0  0  0
  -27.5987    1.0586   30.3700 C   0  0  0  0  0  0  0  0  0  0  0  0
  -26.4856    4.5602   29.5942 C   0  0  0  0  0  0  0  0  0  0  0  0
  -25.8716    5.1677   28.6239 C   0  0  0  0  0  0  0  0  0  0  0  0
  -25.9314    4.5685   27.2481 C   0  0  0  0  0  0  0  0  0  0  0  0
  -26.4004    3.3412   27.0948 C   0  0  0  0  0  0  0  0  0  0  0  0
  -25.2780    6.8174   28.6827 Cl  0  0  0  0  0  0  0  0  0  0  0  0
  -27.5444    0.7864   26.8030 O   0  0  0  0  0  0  0  0  0  0  0  0
  -28.5981    0.8121   25.9695 C   0  0  0  0  0  0  0  0  0  0  0  0
  -29.7005    0.7045   26.3637 C   0  0  0  0  0  0  0  0  0  0  0  0
  -30.6127    0.8973   25.9344 C   0  0  0  0  0  0  0  0  0  0  0  0
  1  2  1  0
  9 12  1  0
  3 13  1  0
 13 14  1  0
 14 15  2  3
 15 16  1  0
  2  3  2  0
  3  4  1  0
  5  6  1  0
  6  7  2  0
  7  2  1  0
  4  5  2  0
  5  8  1  0
  8  9  2  0
  9 10  1  0
 10 11  2  0
 11  4  1  0
M  END

$$$$
