No_3134-gen_results/8p0m/2024-11-27-11-27-31/
     RDKit          3D

 20 22  0  0  0  0  0  0  0  0999 V2000
  -28.0162   -0.8135   28.8779 C   0  0  0  0  0  0  0  0  0  0  0  0
  -27.0636   -0.1189   28.6079 C   0  0  0  0  0  0  0  0  0  0  0  0
  -25.7647   -0.3897   29.0360 C   0  0  0  0  0  0  0  0  0  0  0  0
  -25.5296   -1.5302   29.9014 C   0  0  0  0  0  0  0  0  0  0  0  0
  -26.6888   -2.2893   30.1810 C   0  0  0  0  0  0  0  0  0  0  0  0
  -27.8727   -1.9508   29.7373 C   0  0  0  0  0  0  0  0  0  0  0  0
  -28.9304   -2.7298   30.1154 O   0  0  0  0  0  0  0  0  0  0  0  0
  -24.5394    0.4211   28.7421 C   0  0  0  0  0  0  0  0  0  0  0  0
  -23.3459    0.1143   29.1690 C   0  0  0  0  0  0  0  0  0  0  0  0
  -23.1118   -1.0146   29.9166 C   0  0  0  0  0  0  0  0  0  0  0  0
  -24.2498   -1.8802   30.3244 C   0  0  0  0  0  0  0  0  0  0  0  0
  -22.1596    0.8897   28.7401 C   0  0  0  0  0  0  0  0  0  0  0  0
  -22.3346    1.8594   27.7443 N   0  0  0  0  0  0  0  0  0  0  0  0
  -23.5400    2.2713   27.3068 C   0  0  0  0  0  0  0  0  0  0  0  0
  -24.6500    1.5138   27.7622 C   0  0  0  0  0  0  0  0  0  0  0  0
  -30.0482   -2.2077   30.6439 C   0  0  0  0  0  0  0  0  0  0  0  0
  -31.0922   -2.8405   30.2663 C   0  0  0  0  0  0  0  0  0  0  0  0
  -31.0460   -4.1329   29.8472 C   0  0  0  0  0  0  0  0  0  0  0  0
  -29.8788   -4.7855   30.0146 C   0  0  0  0  0  0  0  0  0  0  0  0
  -29.7045   -6.1083   29.8897 C   0  0  0  0  0  0  0  0  0  0  0  0
  6  7  1  0
  7 16  1  0
 16 17  2  3
 17 18  1  0
 18 19  2  3
 19 20  1  0
  1  2  2  0
  2  3  1  0
  4  5  1  0
  5  6  2  0
  6  1  1  0
  3  4  2  0
  4 11  1  0
 11 10  2  0
 10  9  1  0
  8  3  1  0
  8  9  2  0
  9 12  1  0
 12 13  2  0
 13 14  1  0
 14 15  2  0
 15  8  1  0
M  END

$$$$
