No_370-gen_results/8p0m/2024-11-27-11-27-31/
     RDKit          3D

  9  9  0  0  0  0  0  0  0  0999 V2000
  -28.0727   -1.2542   28.5316 F   0  0  0  0  0  0  0  0  0  0  0  0
  -28.2662   -0.4214   29.1931 C   0  0  0  0  0  0  0  0  0  0  0  0
  -28.1839    0.5652   29.0416 C   0  0  0  0  0  0  0  0  0  0  0  0
  -28.3784    1.7304   30.0191 C   0  0  0  0  0  0  0  0  0  0  0  0
  -28.1387    3.1419   29.8441 C   0  0  0  0  0  0  0  0  0  0  0  0
  -27.6113    3.4763   28.5274 C   0  0  0  0  0  0  0  0  0  0  0  0
  -27.3590    2.4730   27.5683 C   0  0  0  0  0  0  0  0  0  0  0  0
  -27.5955    1.1832   27.8887 C   0  0  0  0  0  0  0  0  0  0  0  0
  -29.5715   -0.6447   29.8669 F   0  0  0  0  0  0  0  0  0  0  0  0
  1  2  1  0
  2  9  1  0
  2  3  1  0
  3  4  2  0
  4  5  1  0
  5  6  2  0
  6  7  1  0
  7  8  2  0
  8  3  1  0
M  END

$$$$
