No_3470-gen_results/8p0m/2024-11-27-11-27-31/
     RDKit          3D

  7  7  0  0  0  0  0  0  0  0999 V2000
  -28.0162   -0.8135   28.8779 C   0  0  0  0  0  0  0  0  0  0  0  0
  -27.0636   -0.1189   28.6079 C   0  0  0  0  0  0  0  0  0  0  0  0
  -26.9019    0.6131   27.2384 Cl  0  0  0  0  0  0  0  0  0  0  0  0
  -28.5275   -0.5946   30.2053 C   0  0  0  0  0  0  0  0  0  0  0  0
  -27.8887   -0.0887   31.0213 C   0  0  0  0  0  0  0  0  0  0  0  0
  -26.6779    0.6835   30.8603 C   0  0  0  0  0  0  0  0  0  0  0  0
  -26.3087    0.7470   29.5251 C   0  0  0  0  0  0  0  0  0  0  0  0
  2  3  1  0
  1  2  2  0
  2  7  1  0
  7  6  2  0
  6  5  1  0
  5  4  2  0
  4  1  1  0
M  END

$$$$
