No_3123-gen_results/8p0m/2024-11-27-11-27-31/
     RDKit          3D

 25 27  0  0  0  0  0  0  0  0999 V2000
  -28.0162   -0.8135   28.8779 C   0  0  0  0  0  0  0  0  0  0  0  0
  -27.0636   -0.1189   28.6079 C   0  0  0  0  0  0  0  0  0  0  0  0
  -25.7647   -0.3897   29.0360 C   0  0  0  0  0  0  0  0  0  0  0  0
  -25.5296   -1.5302   29.9014 C   0  0  0  0  0  0  0  0  0  0  0  0
  -26.6577   -2.2915   30.2035 C   0  0  0  0  0  0  0  0  0  0  0  0
  -27.8548   -1.9555   29.7630 C   0  0  0  0  0  0  0  0  0  0  0  0
  -24.5349    0.4128   28.7431 C   0  0  0  0  0  0  0  0  0  0  0  0
  -23.3062    0.0366   29.0393 C   0  0  0  0  0  0  0  0  0  0  0  0
  -22.1759    0.8277   28.6836 C   0  0  0  0  0  0  0  0  0  0  0  0
  -22.3944    1.5883   27.5216 C   0  0  0  0  0  0  0  0  0  0  0  0
  -24.5394    1.4254   27.6748 C   0  0  0  0  0  0  0  0  0  0  0  0
  -23.5207    2.0247   27.1793 C   0  0  0  0  0  0  0  0  0  0  0  0
  -29.0194   -2.7799   30.1894 C   0  0  0  0  0  0  0  0  0  0  0  0
  -28.8728   -4.0961   30.4172 N   0  0  0  0  0  0  0  0  0  0  0  0
  -29.6995   -4.8192   31.1928 C   0  0  0  0  0  0  0  0  0  0  0  0
  -30.9907   -4.7960   30.9140 C   0  0  0  0  0  0  0  0  0  0  0  0
  -31.5185   -3.5277   30.6342 N   0  0  0  0  0  0  0  0  0  0  0  0
  -30.4603   -2.3849   30.3348 C   0  0  0  0  0  0  0  0  0  0  0  0
  -32.8231   -3.0837   30.5364 C   0  0  0  0  0  0  0  0  0  0  0  0
  -33.1682   -2.0785   31.2992 C   0  0  0  0  0  0  0  0  0  0  0  0
  -32.4956   -1.6356   32.2145 C   0  0  0  0  0  0  0  0  0  0  0  0
  -32.4635   -0.5823   32.8811 C   0  0  0  0  0  0  0  0  0  0  0  0
  -31.6162   -0.1285   34.0017 C   0  0  0  0  0  0  0  0  0  0  0  0
  -30.5323   -1.0020   34.2685 C   0  0  0  0  0  0  0  0  0  0  0  0
  -30.3883   -2.1651   33.5027 C   0  0  0  0  0  0  0  0  0  0  0  0
  3  7  1  0
  6 13  1  0
 13 14  1  0
 14 15  1  0
 15 16  1  0
 16 17  1  0
 13 18  1  0
 17 18  1  0
 17 19  1  0
 19 20  1  0
 20 21  2  3
 21 22  1  0
 22 23  2  3
 23 24  1  0
 24 25  2  0
  7  8  2  0
  8  9  1  0
  9 10  2  0
 10 12  1  0
 12 11  2  0
 11  7  1  0
  1  2  2  0
  2  3  1  0
  3  4  2  0
  4  5  1  0
  5  6  2  0
  6  1  1  0
M  END

$$$$
