No_3628-gen_results/8p0m/2024-11-27-11-27-31/
     RDKit          3D

 31 35  0  0  0  0  0  0  0  0999 V2000
  -28.0162   -0.8135   28.8779 C   0  0  0  0  0  0  0  0  0  0  0  0
  -28.4690   -0.7850   29.8287 C   0  0  0  0  0  0  0  0  0  0  0  0
  -26.5455   -0.8762   28.8500 C   0  0  0  0  0  0  0  0  0  0  0  0
  -25.8041   -1.0324   30.0571 C   0  0  0  0  0  0  0  0  0  0  0  0
  -27.9437   -0.9869   31.2075 C   0  0  0  0  0  0  0  0  0  0  0  0
  -26.5825   -1.0386   31.2231 C   0  0  0  0  0  0  0  0  0  0  0  0
  -30.0606   -0.7371   29.9024 C   0  0  0  0  0  0  0  0  0  0  0  0
  -30.5524   -0.2769   29.0111 O   0  0  0  0  0  0  0  0  0  0  0  0
  -30.7429   -1.2889   30.9939 N   0  0  0  0  0  0  0  0  0  0  0  0
  -32.1712   -1.2600   30.9749 C   0  0  0  0  0  0  0  0  0  0  0  0
  -24.3688   -1.0881   30.0880 C   0  0  0  0  0  0  0  0  0  0  0  0
  -23.5808   -0.7799   29.0756 C   0  0  0  0  0  0  0  0  0  0  0  0
  -22.1319   -0.6858   29.1927 C   0  0  0  0  0  0  0  0  0  0  0  0
  -21.3960   -0.1584   28.1410 C   0  0  0  0  0  0  0  0  0  0  0  0
  -22.0338    0.8623   27.3306 C   0  0  0  0  0  0  0  0  0  0  0  0
  -23.4607    1.0124   27.3680 C   0  0  0  0  0  0  0  0  0  0  0  0
  -24.1728    0.2953   28.2164 C   0  0  0  0  0  0  0  0  0  0  0  0
  -23.9903    2.0185   26.4447 C   0  0  0  0  0  0  0  0  0  0  0  0
  -25.2567    1.7441   25.9405 C   0  0  0  0  0  0  0  0  0  0  0  0
  -26.3314    2.4982   26.3021 C   0  0  0  0  0  0  0  0  0  0  0  0
  -27.5779    2.3104   25.6364 C   0  0  0  0  0  0  0  0  0  0  0  0
  -27.7171    1.1612   24.8296 C   0  0  0  0  0  0  0  0  0  0  0  0
  -26.6911    0.3106   24.6149 C   0  0  0  0  0  0  0  0  0  0  0  0
  -25.4039    0.5943   25.1462 C   0  0  0  0  0  0  0  0  0  0  0  0
  -32.8196   -1.7608   31.5820 C   0  0  0  0  0  0  0  0  0  0  0  0
  -32.2849   -2.6105   32.6738 C   0  0  0  0  0  0  0  0  0  0  0  0
  -30.8693   -2.7434   32.7849 C   0  0  0  0  0  0  0  0  0  0  0  0
  -30.0990   -2.1442   31.8881 C   0  0  0  0  0  0  0  0  0  0  0  0
  -28.6595   -2.0273   32.0979 C   0  0  0  0  0  0  0  0  0  0  0  0
  -24.0249    3.3301   27.2399 C   0  0  0  0  0  0  0  0  0  0  0  0
  -22.9935    2.2065   25.2253 C   0  0  0  0  0  0  0  0  0  0  0  0
  2  7  1  0
  7  8  2  0
  7  9  1  0
  9 10  1  0
  4 11  1  0
 16 18  1  0
 18 19  1  0
 25 26  1  0
  9 28  1  0
 27 28  1  0
  5 29  1  0
 28 29  1  0
 18 30  1  0
 18 31  1  0
 11 12  1  0
 10 25  1  0
 26 27  1  0
 12 13  2  0
 13 14  1  0
 14 15  2  0
 15 16  1  0
 16 17  2  0
 17 12  1  0
 19 20  2  0
 20 21  1  0
 21 22  2  0
 22 23  1  0
 23 24  2  0
 24 19  1  0
  1  2  2  0
  2  5  1  0
  5  6  2  0
  6  4  1  0
  4  3  2  0
  3  1  1  0
M  END

$$$$
