No_3200-gen_results/8p0m/2024-11-27-11-27-31/
     RDKit          3D

 35 38  0  0  0  0  0  0  0  0999 V2000
  -28.0162   -0.8135   28.8779 C   0  0  0  0  0  0  0  0  0  0  0  0
  -27.0636   -0.1190   28.6079 C   0  0  0  0  0  0  0  0  0  0  0  0
  -26.9716    0.7139   27.5060 C   0  0  0  0  0  0  0  0  0  0  0  0
  -25.8205    1.4909   27.1160 C   0  0  0  0  0  0  0  0  0  0  0  0
  -24.6562    1.4242   27.9180 C   0  0  0  0  0  0  0  0  0  0  0  0
  -24.6847    0.5901   29.0659 C   0  0  0  0  0  0  0  0  0  0  0  0
  -25.8099   -0.1266   29.3338 C   0  0  0  0  0  0  0  0  0  0  0  0
  -28.7097   -0.5805   30.0246 N   0  0  0  0  0  0  0  0  0  0  0  0
  -23.4637    2.1746   27.6094 C   0  0  0  0  0  0  0  0  0  0  0  0
  -22.8430    2.5577   28.6185 F   0  0  0  0  0  0  0  0  0  0  0  0
  -22.5710    1.3322   26.9603 F   0  0  0  0  0  0  0  0  0  0  0  0
  -23.7266    3.2140   26.8335 F   0  0  0  0  0  0  0  0  0  0  0  0
  -29.8052   -1.3281   30.4911 C   0  0  0  0  0  0  0  0  0  0  0  0
  -30.3359   -2.2169   29.7537 C   0  0  0  0  0  0  0  0  0  0  0  0
  -31.3116   -2.7154   29.9366 C   0  0  0  0  0  0  0  0  0  0  0  0
  -32.0380   -2.5758   31.1971 C   0  0  0  0  0  0  0  0  0  0  0  0
  -31.5548   -1.6555   32.0714 C   0  0  0  0  0  0  0  0  0  0  0  0
  -30.4091   -0.9494   31.7226 C   0  0  0  0  0  0  0  0  0  0  0  0
  -28.1153    0.8082   26.6174 C   0  0  0  0  0  0  0  0  0  0  0  0
  -28.0145    0.5552   25.2865 N   0  0  0  0  0  0  0  0  0  0  0  0
  -29.2771    0.9461   27.0670 O   0  0  0  0  0  0  0  0  0  0  0  0
  -29.0607    0.4785   24.3417 C   0  0  0  0  0  0  0  0  0  0  0  0
  -28.2677    0.5624   30.9619 C   0  0  0  0  0  0  0  0  0  0  0  0
  -27.3854    0.4157   31.8892 C   0  0  0  0  0  0  0  0  0  0  0  0
  -27.5073    0.8279   32.9061 C   0  0  0  0  0  0  0  0  0  0  0  0
  -28.3043    2.0334   33.2362 C   0  0  0  0  0  0  0  0  0  0  0  0
  -28.9122    1.7657   30.6065 C   0  0  0  0  0  0  0  0  0  0  0  0
  -28.7790    2.7622   31.3519 C   0  0  0  0  0  0  0  0  0  0  0  0
  -28.6908    2.9912   32.6346 C   0  0  0  0  0  0  0  0  0  0  0  0
  -30.1630    0.0415   24.8861 C   0  0  0  0  0  0  0  0  0  0  0  0
  -31.0634   -0.4746   23.9294 C   0  0  0  0  0  0  0  0  0  0  0  0
  -32.3072   -0.6174   24.1811 C   0  0  0  0  0  0  0  0  0  0  0  0
  -32.8545   -0.5492   25.5276 C   0  0  0  0  0  0  0  0  0  0  0  0
  -31.9603   -0.0236   26.4846 C   0  0  0  0  0  0  0  0  0  0  0  0
  -30.7184    0.3539   26.1357 C   0  0  0  0  0  0  0  0  0  0  0  0
  1  8  1  0
  5  9  1  0
  9 10  1  0
  9 11  1  0
  9 12  1  0
  8 13  1  0
  3 19  1  0
 19 20  1  0
 19 21  2  0
 20 22  1  0
  8 23  1  0
 23 24  1  0
 24 25  2  0
 25 26  1  0
 23 27  1  0
 27 28  2  0
 26 29  2  0
 28 29  1  0
 22 30  1  0
  1  2  1  0
  2  3  1  0
  3  4  2  0
  4  5  1  0
  5  6  2  0
  6  7  1  0
  7  2  2  0
 13 14  2  0
 14 15  1  0
 15 16  2  0
 16 17  1  0
 17 18  2  0
 18 13  1  0
 30 31  2  0
 31 32  1  0
 32 33  2  0
 33 34  1  0
 34 35  2  0
 35 30  1  0
M  END

$$$$
