No_3431-gen_results/8p0m/2024-11-27-11-27-31/
     RDKit          3D

  7  6  0  0  0  0  0  0  0  0999 V2000
  -28.0727   -1.2542   28.5316 F   0  0  0  0  0  0  0  0  0  0  0  0
  -27.0607   -0.6291   28.8721 C   0  0  0  0  0  0  0  0  0  0  0  0
  -26.1267   -1.0777   29.2000 F   0  0  0  0  0  0  0  0  0  0  0  0
  -27.1088    0.8355   28.6396 C   0  0  0  0  0  0  0  0  0  0  0  0
  -26.1637    1.5026   29.3741 C   0  0  0  0  0  0  0  0  0  0  0  0
  -26.2626    2.9890   30.0810 Br  0  0  0  0  0  0  0  0  0  0  0  0
  -24.7936    0.9185   29.4782 C   0  0  0  0  0  0  0  0  0  0  0  0
  1  2  1  0
  2  3  1  0
  2  4  1  0
  4  5  1  0
  5  6  1  0
  5  7  1  0
M  END

$$$$
