No_3856-gen_results/8p0m/2024-11-27-11-27-31/
     RDKit          3D

 23 24  0  0  0  0  0  0  0  0999 V2000
  -28.0162   -0.8135   28.8779 C   0  0  0  0  0  0  0  0  0  0  0  0
  -28.4690   -0.7850   29.8287 C   0  0  0  0  0  0  0  0  0  0  0  0
  -27.0871    0.2903   28.6377 C   0  0  0  0  0  0  0  0  0  0  0  0
  -26.2516    0.4114   27.4223 C   0  0  0  0  0  0  0  0  0  0  0  0
  -28.3913    0.1041   30.9805 C   0  0  0  0  0  0  0  0  0  0  0  0
  -27.5332    1.1666   30.7866 C   0  0  0  0  0  0  0  0  0  0  0  0
  -26.8281    1.2557   29.6454 C   0  0  0  0  0  0  0  0  0  0  0  0
  -26.2894   -0.3207   26.7007 F   0  0  0  0  0  0  0  0  0  0  0  0
  -26.4500    1.7036   26.8785 F   0  0  0  0  0  0  0  0  0  0  0  0
  -24.8205    0.5391   27.7857 F   0  0  0  0  0  0  0  0  0  0  0  0
  -29.4616   -2.0181   30.2134 C   0  0  0  0  0  0  0  0  0  0  0  0
  -29.0571   -3.1828   30.3946 O   0  0  0  0  0  0  0  0  0  0  0  0
  -30.6870   -1.7841   30.3559 O   0  0  0  0  0  0  0  0  0  0  0  0
  -27.3177    2.1856   31.8363 C   0  0  0  0  0  0  0  0  0  0  0  0
  -26.5745    3.0548   31.7338 C   0  0  0  0  0  0  0  0  0  0  0  0
  -26.2995    4.1524   32.7658 C   0  0  0  0  0  0  0  0  0  0  0  0
  -26.9880    4.0239   33.9422 C   0  0  0  0  0  0  0  0  0  0  0  0
  -27.8387    2.9615   34.0958 C   0  0  0  0  0  0  0  0  0  0  0  0
  -28.0368    2.0319   33.1032 C   0  0  0  0  0  0  0  0  0  0  0  0
  -25.3114    5.2238   32.5072 C   0  0  0  0  0  0  0  0  0  0  0  0
  -24.1453    4.9166   32.8882 F   0  0  0  0  0  0  0  0  0  0  0  0
  -25.2588    5.5055   31.1909 F   0  0  0  0  0  0  0  0  0  0  0  0
  -25.6663    6.3203   33.1744 F   0  0  0  0  0  0  0  0  0  0  0  0
  3  4  1  0
  4  8  1  0
  4  9  1  0
  4 10  1  0
  2 11  1  0
 11 12  1  0
 11 13  2  0
  6 14  1  0
 16 20  1  0
 20 21  1  0
 20 22  1  0
 20 23  1  0
 14 15  2  0
 15 16  1  0
 16 17  2  0
 17 18  1  0
 18 19  2  0
 19 14  1  0
  1  2  2  0
  2  5  1  0
  5  6  2  0
  6  7  1  0
  7  3  2  0
  3  1  1  0
M  END

$$$$
