No_3087-gen_results/8p0m/2024-11-27-11-27-31/
     RDKit          3D

 20 21  0  0  0  0  0  0  0  0999 V2000
  -28.0162   -0.8135   28.8779 C   0  0  0  0  0  0  0  0  0  0  0  0
  -28.4690   -0.7850   29.8287 C   0  0  0  0  0  0  0  0  0  0  0  0
  -27.1356    0.2359   28.5352 C   0  0  0  0  0  0  0  0  0  0  0  0
  -26.8745    1.2825   29.3982 C   0  0  0  0  0  0  0  0  0  0  0  0
  -28.3613    0.1987   30.9244 C   0  0  0  0  0  0  0  0  0  0  0  0
  -27.5277    1.2234   30.6356 C   0  0  0  0  0  0  0  0  0  0  0  0
  -26.3987    0.2949   27.2279 C   0  0  0  0  0  0  0  0  0  0  0  0
  -25.0516   -0.1653   27.3051 Cl  0  0  0  0  0  0  0  0  0  0  0  0
  -27.0578    0.7067   26.0493 C   0  0  0  0  0  0  0  0  0  0  0  0
  -28.2493    1.1579   25.9909 C   0  0  0  0  0  0  0  0  0  0  0  0
  -28.9384    1.5887   27.0655 C   0  0  0  0  0  0  0  0  0  0  0  0
  -30.3137    2.1810   26.8072 C   0  0  0  0  0  0  0  0  0  0  0  0
  -30.6825    2.3114   25.5122 C   0  0  0  0  0  0  0  0  0  0  0  0
  -29.9470    1.9640   24.3921 C   0  0  0  0  0  0  0  0  0  0  0  0
  -28.7158    1.4516   24.6116 C   0  0  0  0  0  0  0  0  0  0  0  0
  -26.1660    0.9767   24.9676 C   0  0  0  0  0  0  0  0  0  0  0  0
  -31.1875    2.5896   27.9252 C   0  0  0  0  0  0  0  0  0  0  0  0
  -30.8458    3.3649   28.8237 N   0  0  0  0  0  0  0  0  0  0  0  0
  -31.2877    4.2967   29.3004 C   0  0  0  0  0  0  0  0  0  0  0  0
  -30.7175    5.0861   30.4411 C   0  0  0  0  0  0  0  0  0  0  0  0
  3  7  1  0
  7  8  1  0
  7  9  1  0
  9 10  1  0
  9 16  1  0
 12 17  1  0
 17 18  1  0
 18 19  2  3
 19 20  1  0
  1  2  2  0
  2  5  1  0
  5  6  2  0
  6  4  1  0
  4  3  2  0
  3  1  1  0
 10 11  2  0
 11 12  1  0
 12 13  2  0
 13 14  1  0
 14 15  2  0
 15 10  1  0
M  END

$$$$
