No_3580-gen_results/8p0m/2024-11-27-11-27-31/
     RDKit          3D

 16 18  0  0  0  0  0  0  0  0999 V2000
  -28.0162   -0.8135   28.8779 C   0  0  0  0  0  0  0  0  0  0  0  0
  -28.4690   -0.7850   29.8287 C   0  0  0  0  0  0  0  0  0  0  0  0
  -27.0871    0.2903   28.6377 C   0  0  0  0  0  0  0  0  0  0  0  0
  -26.8317    1.2487   29.5869 C   0  0  0  0  0  0  0  0  0  0  0  0
  -28.3914    0.0801   31.0065 C   0  0  0  0  0  0  0  0  0  0  0  0
  -27.4940    1.1521   30.7841 C   0  0  0  0  0  0  0  0  0  0  0  0
  -26.3109    0.3918   27.3640 C   0  0  0  0  0  0  0  0  0  0  0  0
  -25.3678    1.4459   27.3016 C   0  0  0  0  0  0  0  0  0  0  0  0
  -25.2143    2.4024   28.3183 C   0  0  0  0  0  0  0  0  0  0  0  0
  -25.8847    2.3204   29.4046 C   0  0  0  0  0  0  0  0  0  0  0  0
  -24.5496    1.6001   26.0263 C   0  0  0  0  0  0  0  0  0  0  0  0
  -23.3288    1.5218   26.0675 C   0  0  0  0  0  0  0  0  0  0  0  0
  -22.4765    2.0485   26.9972 C   0  0  0  0  0  0  0  0  0  0  0  0
  -22.7666    2.3724   28.3575 C   0  0  0  0  0  0  0  0  0  0  0  0
  -24.0366    2.5058   28.8374 C   0  0  0  0  0  0  0  0  0  0  0  0
  -23.9590    3.1290   30.1334 O   0  0  0  0  0  0  0  0  0  0  0  0
  8 11  1  0
 11 12  1  0
 12 13  2  0
 13 14  1  0
  9 15  1  0
 14 15  2  0
 15 16  1  0
  4 10  2  0
 10  9  1  0
  9  8  2  0
  8  7  1  0
  7  3  2  0
  1  2  2  0
  2  5  1  0
  5  6  2  0
  6  4  1  0
  4  3  1  0
  3  1  1  0
M  END

$$$$
