No_3095-gen_results/8p0m/2024-11-27-11-27-31/
     RDKit          3D

 28 30  0  0  0  0  0  0  0  0999 V2000
  -28.0162   -0.8135   28.8779 C   0  0  0  0  0  0  0  0  0  0  0  0
  -27.0636   -0.1190   28.6079 C   0  0  0  0  0  0  0  0  0  0  0  0
  -27.0788    0.9846   29.1738 F   0  0  0  0  0  0  0  0  0  0  0  0
  -25.6585   -0.7381   28.9306 C   0  0  0  0  0  0  0  0  0  0  0  0
  -27.0246    0.2131   27.0611 C   0  0  0  0  0  0  0  0  0  0  0  0
  -24.5632   -0.0543   28.6394 C   0  0  0  0  0  0  0  0  0  0  0  0
  -23.2527   -0.3304   29.2255 C   0  0  0  0  0  0  0  0  0  0  0  0
  -22.1169    0.3790   28.7896 C   0  0  0  0  0  0  0  0  0  0  0  0
  -22.1953    1.3041   27.7606 C   0  0  0  0  0  0  0  0  0  0  0  0
  -23.4652    1.6835   27.2320 C   0  0  0  0  0  0  0  0  0  0  0  0
  -24.5383    0.9963   27.6679 C   0  0  0  0  0  0  0  0  0  0  0  0
  -28.1714    0.5903   26.4503 C   0  0  0  0  0  0  0  0  0  0  0  0
  -25.7557    0.3348   26.3867 C   0  0  0  0  0  0  0  0  0  0  0  0
  -27.9346   -1.4846   30.1868 C   0  0  0  0  0  0  0  0  0  0  0  0
  -28.9161   -2.5507   30.5359 C   0  0  0  0  0  0  0  0  0  0  0  0
  -28.6462   -3.3333   31.2254 O   0  0  0  0  0  0  0  0  0  0  0  0
  -30.0058   -2.4777   29.8811 O   0  0  0  0  0  0  0  0  0  0  0  0
  -28.4053    0.0732   25.1654 C   0  0  0  0  0  0  0  0  0  0  0  0
  -29.6070    0.1083   24.5114 C   0  0  0  0  0  0  0  0  0  0  0  0
  -29.2691    1.2357   27.0443 C   0  0  0  0  0  0  0  0  0  0  0  0
  -30.4957    1.3745   26.4065 C   0  0  0  0  0  0  0  0  0  0  0  0
  -30.6311    0.8560   25.1053 C   0  0  0  0  0  0  0  0  0  0  0  0
  -23.5734    2.7082   26.1828 C   0  0  0  0  0  0  0  0  0  0  0  0
  -31.6269    2.0612   27.0281 C   0  0  0  0  0  0  0  0  0  0  0  0
  -31.5499    2.8981   27.8078 O   0  0  0  0  0  0  0  0  0  0  0  0
  -32.7916    1.6211   26.6541 O   0  0  0  0  0  0  0  0  0  0  0  0
  -23.1383   -1.2796   30.3083 C   0  0  0  0  0  0  0  0  0  0  0  0
  -23.7466   -0.9575   31.3545 O   0  0  0  0  0  0  0  0  0  0  0  0
  1  2  1  0
  2  3  1  0
  2  4  1  0
  2  5  1  0
  4  6  1  0
  5 12  1  0
  5 13  1  0
 11 13  1  0
  1 14  2  3
 14 15  1  0
 15 16  2  0
 15 17  1  0
 10 23  1  0
 21 24  1  0
 24 25  2  0
 24 26  1  0
  7 27  1  0
 27 28  2  0
  6  7  2  0
  7  8  1  0
  8  9  2  0
  9 10  1  0
 10 11  2  0
 11  6  1  0
 12 18  2  0
 18 19  1  0
 19 22  2  0
 22 21  1  0
 21 20  2  0
 20 12  1  0
M  END

$$$$
