No_3165-gen_results/8p0m/2024-11-27-11-27-31/
     RDKit          3D

 21 23  0  0  0  0  0  0  0  0999 V2000
  -28.0727   -1.2542   28.5316 F   0  0  0  0  0  0  0  0  0  0  0  0
  -28.2662   -0.4214   29.1931 C   0  0  0  0  0  0  0  0  0  0  0  0
  -28.1839    0.5652   29.0416 C   0  0  0  0  0  0  0  0  0  0  0  0
  -28.3784    1.7304   30.0191 C   0  0  0  0  0  0  0  0  0  0  0  0
  -28.1387    3.1419   29.8441 C   0  0  0  0  0  0  0  0  0  0  0  0
  -27.6113    3.4763   28.5274 C   0  0  0  0  0  0  0  0  0  0  0  0
  -27.2564    4.7983   28.2004 C   0  0  0  0  0  0  0  0  0  0  0  0
  -27.4177    2.5386   27.5276 C   0  0  0  0  0  0  0  0  0  0  0  0
  -27.6501    1.1858   27.8425 C   0  0  0  0  0  0  0  0  0  0  0  0
  -29.5699   -0.6495   29.8208 F   0  0  0  0  0  0  0  0  0  0  0  0
  -25.9735    5.2396   28.7371 C   0  0  0  0  0  0  0  0  0  0  0  0
  -25.2829    6.2548   27.9656 C   0  0  0  0  0  0  0  0  0  0  0  0
  -25.9330    6.9035   26.9035 C   0  0  0  0  0  0  0  0  0  0  0  0
  -27.1798    6.5275   26.5556 C   0  0  0  0  0  0  0  0  0  0  0  0
  -27.8038    5.4304   27.1216 C   0  0  0  0  0  0  0  0  0  0  0  0
  -28.3000    4.1069   30.8366 C   0  0  0  0  0  0  0  0  0  0  0  0
  -28.6233    5.0550   30.9837 C   0  0  0  0  0  0  0  0  0  0  0  0
  -28.8675    5.9563   32.0032 C   0  0  0  0  0  0  0  0  0  0  0  0
  -27.8107    3.5934   32.2299 C   0  0  0  0  0  0  0  0  0  0  0  0
  -27.9705    4.3042   33.3679 C   0  0  0  0  0  0  0  0  0  0  0  0
  -28.4754    5.5785   33.2596 C   0  0  0  0  0  0  0  0  0  0  0  0
  1  2  1  0
  6  7  1  0
  2 10  1  0
  5 16  1  0
  2  3  1  0
  3  4  2  0
  4  5  1  0
  5  6  2  0
  6  8  1  0
  8  9  2  0
  9  3  1  0
 16 17  2  0
 17 18  1  0
 18 21  2  0
 21 20  1  0
 20 19  2  0
 19 16  1  0
  7 11  2  0
 11 12  1  0
 12 13  2  0
 13 14  1  0
 14 15  2  0
 15  7  1  0
M  END

$$$$
