No_380-gen_results/8p0m/2024-11-27-11-27-31/
     RDKit          3D

 14 15  0  0  0  0  0  0  0  0999 V2000
  -28.0162   -0.8135   28.8779 C   0  0  0  0  0  0  0  0  0  0  0  0
  -27.0636   -0.1189   28.6079 C   0  0  0  0  0  0  0  0  0  0  0  0
  -25.7647   -0.3897   29.0360 C   0  0  0  0  0  0  0  0  0  0  0  0
  -24.5516    0.4058   28.7646 C   0  0  0  0  0  0  0  0  0  0  0  0
  -24.6957    1.4480   27.7988 C   0  0  0  0  0  0  0  0  0  0  0  0
  -25.9755    1.7250   27.3077 C   0  0  0  0  0  0  0  0  0  0  0  0
  -27.0718    1.0134   27.6535 C   0  0  0  0  0  0  0  0  0  0  0  0
  -29.2261   -0.0677   29.3149 C   0  0  0  0  0  0  0  0  0  0  0  0
  -29.1494    0.9467   29.5349 C   0  0  0  0  0  0  0  0  0  0  0  0
  -30.4576    1.5996   30.0309 C   0  0  0  0  0  0  0  0  0  0  0  0
  -30.5418    2.9859   30.3925 C   0  0  0  0  0  0  0  0  0  0  0  0
  -29.3586    3.7102   30.1449 C   0  0  0  0  0  0  0  0  0  0  0  0
  -28.1943    3.1871   29.6911 C   0  0  0  0  0  0  0  0  0  0  0  0
  -28.1149    1.8696   29.4167 C   0  0  0  0  0  0  0  0  0  0  0  0
  1  8  1  0
  1  2  1  0
  8  9  1  0
  2  3  2  0
  3  4  1  0
  4  5  2  0
  5  6  1  0
  6  7  2  0
  7  2  1  0
  9 10  2  0
 10 11  1  0
 11 12  2  0
 12 13  1  0
 13 14  2  0
 14  9  1  0
M  END

$$$$
