No_3135-gen_results/8p0m/2024-11-27-11-27-31/
     RDKit          3D

 31 34  0  0  0  0  0  0  0  0999 V2000
  -28.0727   -1.2542   28.5316 F   0  0  0  0  0  0  0  0  0  0  0  0
  -27.3591   -0.3792   28.7224 C   0  0  0  0  0  0  0  0  0  0  0  0
  -27.7014    0.7608   29.1249 C   0  0  0  0  0  0  0  0  0  0  0  0
  -25.8844   -0.6918   28.4374 C   0  0  0  0  0  0  0  0  0  0  0  0
  -24.9212    0.3779   28.6013 C   0  0  0  0  0  0  0  0  0  0  0  0
  -26.6914    1.8696   29.2705 C   0  0  0  0  0  0  0  0  0  0  0  0
  -25.3451    1.6252   29.0013 C   0  0  0  0  0  0  0  0  0  0  0  0
  -23.2829    0.1214   28.3220 Cl  0  0  0  0  0  0  0  0  0  0  0  0
  -29.0546    1.1394   29.4226 C   0  0  0  0  0  0  0  0  0  0  0  0
  -29.5829    0.8112   30.5989 C   0  0  0  0  0  0  0  0  0  0  0  0
  -28.7587    0.2037   31.6516 C   0  0  0  0  0  0  0  0  0  0  0  0
  -29.4140   -0.2563   32.8582 C   0  0  0  0  0  0  0  0  0  0  0  0
  -30.7685   -0.0066   32.9997 C   0  0  0  0  0  0  0  0  0  0  0  0
  -31.5095    0.5438   32.0458 C   0  0  0  0  0  0  0  0  0  0  0  0
  -30.9619    0.9404   30.8482 C   0  0  0  0  0  0  0  0  0  0  0  0
  -29.7880    1.7081   28.3786 C   0  0  0  0  0  0  0  0  0  0  0  0
  -29.8048    3.0574   28.2008 C   0  0  0  0  0  0  0  0  0  0  0  0
  -29.4818    3.9149   28.9828 N   0  0  0  0  0  0  0  0  0  0  0  0
  -29.3243    5.2559   28.7398 C   0  0  0  0  0  0  0  0  0  0  0  0
  -30.1860    3.5199   26.9759 N   0  0  0  0  0  0  0  0  0  0  0  0
  -30.1132    4.8300   26.5740 C   0  0  0  0  0  0  0  0  0  0  0  0
  -29.7035    5.7854   27.5177 C   0  0  0  0  0  0  0  0  0  0  0  0
  -30.4589    0.9348   27.6330 O   0  0  0  0  0  0  0  0  0  0  0  0
  -28.9361    6.1418   29.7417 N   0  0  0  0  0  0  0  0  0  0  0  0
  -28.1787    6.5785   30.2606 C   0  0  0  0  0  0  0  0  0  0  0  0
  -27.4264    6.4693   31.1423 C   0  0  0  0  0  0  0  0  0  0  0  0
  -27.6094    5.3725   32.1331 C   0  0  0  0  0  0  0  0  0  0  0  0
  -26.6775    5.0114   33.1188 C   0  0  0  0  0  0  0  0  0  0  0  0
  -25.4762    5.7425   33.2009 C   0  0  0  0  0  0  0  0  0  0  0  0
  -25.1728    6.7437   32.3113 C   0  0  0  0  0  0  0  0  0  0  0  0
  -26.0870    7.0510   31.3177 C   0  0  0  0  0  0  0  0  0  0  0  0
  1  2  1  0
  5  8  1  0
  3  9  1  0
  9 16  1  0
 16 17  1  0
 16 23  2  0
 19 24  1  0
 24 25  1  0
 25 26  1  0
  9 10  1  0
 17 18  2  0
 18 19  1  0
 19 22  2  0
 22 21  1  0
 21 20  2  0
 20 17  1  0
  2  3  2  0
  3  6  1  0
  6  7  2  0
  7  5  1  0
  5  4  2  0
  4  2  1  0
 10 11  2  0
 11 12  1  0
 12 13  2  0
 13 14  1  0
 14 15  2  0
 15 10  1  0
 26 27  2  0
 27 28  1  0
 28 29  2  0
 29 30  1  0
 30 31  2  0
 31 26  1  0
M  END

$$$$
