No_3374-gen_results/8p0m/2024-11-27-11-27-31/
     RDKit          3D

 25 28  0  0  0  0  0  0  0  0999 V2000
  -28.0162   -0.8135   28.8779 C   0  0  0  0  0  0  0  0  0  0  0  0
  -27.0636   -0.1189   28.6079 C   0  0  0  0  0  0  0  0  0  0  0  0
  -27.0010    0.6913   27.4910 C   0  0  0  0  0  0  0  0  0  0  0  0
  -25.8548    1.4825   27.0830 C   0  0  0  0  0  0  0  0  0  0  0  0
  -24.6901    1.4526   27.8807 C   0  0  0  0  0  0  0  0  0  0  0  0
  -24.7379    0.6010   29.0416 C   0  0  0  0  0  0  0  0  0  0  0  0
  -25.8234   -0.1688   29.3887 C   0  0  0  0  0  0  0  0  0  0  0  0
  -29.2455   -0.0678   29.1937 C   0  0  0  0  0  0  0  0  0  0  0  0
  -30.3313   -0.8312   29.6878 C   0  0  0  0  0  0  0  0  0  0  0  0
  -31.5899   -0.2686   29.7276 C   0  0  0  0  0  0  0  0  0  0  0  0
  -31.7068    1.1045   29.3738 C   0  0  0  0  0  0  0  0  0  0  0  0
  -30.6404    1.7928   28.9037 C   0  0  0  0  0  0  0  0  0  0  0  0
  -29.3966    1.2125   28.7344 C   0  0  0  0  0  0  0  0  0  0  0  0
  -23.4791    2.1485   27.5511 C   0  0  0  0  0  0  0  0  0  0  0  0
  -23.4314    3.1024   26.7251 N   0  0  0  0  0  0  0  0  0  0  0  0
  -22.1775    1.6787   28.0759 C   0  0  0  0  0  0  0  0  0  0  0  0
  -22.0772    0.7855   28.9846 N   0  0  0  0  0  0  0  0  0  0  0  0
  -23.2758    0.1198   29.4825 C   0  0  0  0  0  0  0  0  0  0  0  0
  -30.8024    3.2412   28.4970 C   0  0  0  0  0  0  0  0  0  0  0  0
  -31.4793    4.0002   28.8741 C   0  0  0  0  0  0  0  0  0  0  0  0
  -32.3683    3.8113   30.0397 C   0  0  0  0  0  0  0  0  0  0  0  0
  -33.0528    4.9440   30.5847 C   0  0  0  0  0  0  0  0  0  0  0  0
  -32.9969    6.1094   29.8380 C   0  0  0  0  0  0  0  0  0  0  0  0
  -32.2722    6.3645   28.7625 C   0  0  0  0  0  0  0  0  0  0  0  0
  -31.4482    5.3831   28.2913 C   0  0  0  0  0  0  0  0  0  0  0  0
  1  2  1  0
  1  8  1  0
  5 14  1  0
 14 15  2  0
 14 16  1  0
 16 17  1  0
  6 18  1  0
 17 18  1  0
 12 19  1  0
 19 20  1  0
  2  3  2  0
  3  4  1  0
  4  5  2  0
  5  6  1  0
  6  7  2  0
  7  2  1  0
  8  9  2  0
  9 10  1  0
 10 11  2  0
 11 12  1  0
 12 13  2  0
 13  8  1  0
 20 21  2  0
 21 22  1  0
 22 23  2  0
 23 24  1  0
 24 25  2  0
 25 20  1  0
M  END

$$$$
