No_3335-gen_results/8p0m/2024-11-27-11-27-31/
     RDKit          3D

 18 19  0  0  0  0  0  0  0  0999 V2000
  -28.0162   -0.8135   28.8779 C   0  0  0  0  0  0  0  0  0  0  0  0
  -28.4690   -0.7850   29.8287 C   0  0  0  0  0  0  0  0  0  0  0  0
  -26.5042   -0.7777   28.8766 C   0  0  0  0  0  0  0  0  0  0  0  0
  -25.8103   -0.8531   30.1028 C   0  0  0  0  0  0  0  0  0  0  0  0
  -27.9906   -0.8916   31.2257 C   0  0  0  0  0  0  0  0  0  0  0  0
  -26.6042   -0.8676   31.2652 C   0  0  0  0  0  0  0  0  0  0  0  0
  -30.2937   -0.8377   29.8355 Cl  0  0  0  0  0  0  0  0  0  0  0  0
  -24.4554   -0.8153   30.1264 N   0  0  0  0  0  0  0  0  0  0  0  0
  -23.6553   -1.2801   30.5512 C   0  0  0  0  0  0  0  0  0  0  0  0
  -23.9045    0.0046   28.9369 C   0  0  0  0  0  0  0  0  0  0  0  0
  -24.2254    1.0454   28.3712 C   0  0  0  0  0  0  0  0  0  0  0  0
  -23.5051    1.6531   27.3676 C   0  0  0  0  0  0  0  0  0  0  0  0
  -23.9951    2.6579   26.5049 C   0  0  0  0  0  0  0  0  0  0  0  0
  -25.3474    3.0999   26.6711 C   0  0  0  0  0  0  0  0  0  0  0  0
  -26.0995    2.4286   27.6046 C   0  0  0  0  0  0  0  0  0  0  0  0
  -25.6444    1.4893   28.4357 C   0  0  0  0  0  0  0  0  0  0  0  0
  -22.4796   -0.3834   29.1628 N   0  0  0  0  0  0  0  0  0  0  0  0
  -21.4139    0.1351   28.3883 C   0  0  0  0  0  0  0  0  0  0  0  0
  2  7  1  0
  4  8  1  0
  8  9  1  0
  8 10  1  0
 10 11  1  0
 10 17  2  3
 17 18  1  0
 11 12  2  0
 12 13  1  0
 13 14  2  0
 14 15  1  0
 15 16  2  0
 16 11  1  0
  1  2  2  0
  2  5  1  0
  5  6  2  0
  6  4  1  0
  4  3  2  0
  3  1  1  0
M  END

$$$$
