No_3143-gen_results/8p0m/2024-11-27-11-27-31/
     RDKit          3D

 26 29  0  0  0  0  0  0  0  0999 V2000
  -28.0162   -0.8135   28.8779 C   0  0  0  0  0  0  0  0  0  0  0  0
  -27.0636   -0.1190   28.6079 C   0  0  0  0  0  0  0  0  0  0  0  0
  -26.9849    0.5972   27.5218 N   0  0  0  0  0  0  0  0  0  0  0  0
  -27.9606   -1.5421   30.1660 C   0  0  0  0  0  0  0  0  0  0  0  0
  -26.7814   -1.6198   30.8836 C   0  0  0  0  0  0  0  0  0  0  0  0
  -25.6460   -0.9698   30.4630 C   0  0  0  0  0  0  0  0  0  0  0  0
  -25.7563   -0.1767   29.2863 C   0  0  0  0  0  0  0  0  0  0  0  0
  -25.9019    0.8964   26.8088 C   0  0  0  0  0  0  0  0  0  0  0  0
  -25.8610    1.5597   25.6485 C   0  0  0  0  0  0  0  0  0  0  0  0
  -28.1676    1.0524   26.8978 C   0  0  0  0  0  0  0  0  0  0  0  0
  -28.2221    1.7674   25.7003 C   0  0  0  0  0  0  0  0  0  0  0  0
  -27.0001    2.0336   25.0633 C   0  0  0  0  0  0  0  0  0  0  0  0
  -24.5664    0.4101   28.7843 C   0  0  0  0  0  0  0  0  0  0  0  0
  -24.5868    0.8172   27.4983 C   0  0  0  0  0  0  0  0  0  0  0  0
  -29.1960   -2.2560   30.6234 C   0  0  0  0  0  0  0  0  0  0  0  0
  -30.1750   -1.8230   30.6463 O   0  0  0  0  0  0  0  0  0  0  0  0
  -28.9308   -3.5917   31.0042 N   0  0  0  0  0  0  0  0  0  0  0  0
  -30.0046   -4.4975   31.3598 C   0  0  0  0  0  0  0  0  0  0  0  0
  -23.2883    0.3066   29.5350 C   0  0  0  0  0  0  0  0  0  0  0  0
  -22.2093   -0.5682   29.0417 C   0  0  0  0  0  0  0  0  0  0  0  0
  -23.1428    1.0401   30.7616 C   0  0  0  0  0  0  0  0  0  0  0  0
  -30.8842   -4.0340   31.9934 C   0  0  0  0  0  0  0  0  0  0  0  0
  -31.9125   -4.9711   32.4400 C   0  0  0  0  0  0  0  0  0  0  0  0
  -31.8022   -6.3376   32.0624 C   0  0  0  0  0  0  0  0  0  0  0  0
  -30.7193   -6.7644   31.3058 C   0  0  0  0  0  0  0  0  0  0  0  0
  -29.7236   -5.8426   30.9903 C   0  0  0  0  0  0  0  0  0  0  0  0
  2  3  1  0
  3  8  1  0
  3 10  1  0
  9 12  1  0
 11 12  1  0
  7 13  1  0
  8 14  1  0
 13 14  1  0
  4 15  1  0
 15 16  2  0
 15 17  1  0
 17 18  1  0
 13 19  1  0
 19 20  1  0
 19 21  1  0
  8  9  1  0
 11 10  1  0
 18 22  2  0
 22 23  1  0
 23 24  2  0
 24 25  1  0
 25 26  2  0
 26 18  1  0
  1  2  2  0
  2  7  1  0
  7  6  2  0
  6  5  1  0
  5  4  2  0
  4  1  1  0
M  END

$$$$
