No_3367-gen_results/8p0m/2024-11-27-11-27-31/
     RDKit          3D

 13 14  0  0  0  0  0  0  0  0999 V2000
  -28.0162   -0.8135   28.8779 C   0  0  0  0  0  0  0  0  0  0  0  0
  -27.0636   -0.1190   28.6079 C   0  0  0  0  0  0  0  0  0  0  0  0
  -26.9849    0.5972   27.5218 N   0  0  0  0  0  0  0  0  0  0  0  0
  -27.9930   -1.5759   30.1509 C   0  0  0  0  0  0  0  0  0  0  0  0
  -27.0098   -1.8067   30.6066 C   0  0  0  0  0  0  0  0  0  0  0  0
  -25.7161   -1.3151   30.3001 C   0  0  0  0  0  0  0  0  0  0  0  0
  -25.7457   -0.4027   29.2007 C   0  0  0  0  0  0  0  0  0  0  0  0
  -27.2059    1.8961   27.5012 C   0  0  0  0  0  0  0  0  0  0  0  0
  -27.2785    2.5295   28.5832 C   0  0  0  0  0  0  0  0  0  0  0  0
  -27.5138    4.0083   28.5068 C   0  0  0  0  0  0  0  0  0  0  0  0
  -26.5436    2.6588   26.4002 C   0  0  0  0  0  0  0  0  0  0  0  0
  -26.9947    4.7730   27.4795 C   0  0  0  0  0  0  0  0  0  0  0  0
  -26.3110    4.1513   26.6446 C   0  0  0  0  0  0  0  0  0  0  0  0
  1  2  1  0
  2  3  2  3
  1  4  1  0
  4  5  1  0
  5  6  1  0
  2  7  1  0
  6  7  1  0
  3  8  1  0
  8  9  2  0
  9 10  1  0
 10 12  2  0
 12 13  1  0
 13 11  2  0
 11  8  1  0
M  END

$$$$
