No_3853-gen_results/8p0m/2024-11-27-11-27-31/
     RDKit          3D

 15 16  0  0  0  0  0  0  0  0999 V2000
  -28.0162   -0.8135   28.8779 C   0  0  0  0  0  0  0  0  0  0  0  0
  -27.0636   -0.1189   28.6079 C   0  0  0  0  0  0  0  0  0  0  0  0
  -27.0010    0.6913   27.4910 C   0  0  0  0  0  0  0  0  0  0  0  0
  -28.1420    0.8282   26.7994 C   0  0  0  0  0  0  0  0  0  0  0  0
  -29.2898   -0.4871   28.3661 C   0  0  0  0  0  0  0  0  0  0  0  0
  -29.2849    0.2608   27.2623 C   0  0  0  0  0  0  0  0  0  0  0  0
  -27.9361   -1.6824   30.1380 C   0  0  0  0  0  0  0  0  0  0  0  0
  -28.6225   -1.8376   30.9813 N   0  0  0  0  0  0  0  0  0  0  0  0
  -26.7390   -2.3137   30.2306 O   0  0  0  0  0  0  0  0  0  0  0  0
  -29.9431   -1.1540   31.1180 C   0  0  0  0  0  0  0  0  0  0  0  0
  -29.9415   -0.2365   32.0327 C   0  0  0  0  0  0  0  0  0  0  0  0
  -31.1939    0.1968   32.5178 C   0  0  0  0  0  0  0  0  0  0  0  0
  -32.3449   -0.2343   31.8545 C   0  0  0  0  0  0  0  0  0  0  0  0
  -31.0764   -1.7826   30.7059 C   0  0  0  0  0  0  0  0  0  0  0  0
  -32.2584   -1.2593   30.9799 C   0  0  0  0  0  0  0  0  0  0  0  0
  1  7  1  0
  7  8  1  0
  7  9  2  0
  8 10  1  0
  1  2  2  0
  2  3  1  0
  3  4  2  0
  4  6  1  0
  6  5  2  0
  5  1  1  0
 10 11  2  0
 11 12  1  0
 12 13  2  0
 13 15  1  0
 15 14  2  0
 14 10  1  0
M  END

$$$$
