No_3819-gen_results/8p0m/2024-11-27-11-27-31/
     RDKit          3D

 30 32  0  0  0  0  0  0  0  0999 V2000
  -28.0162   -0.8135   28.8779 C   0  0  0  0  0  0  0  0  0  0  0  0
  -27.0636   -0.1189   28.6079 C   0  0  0  0  0  0  0  0  0  0  0  0
  -27.0010    0.6913   27.4910 C   0  0  0  0  0  0  0  0  0  0  0  0
  -28.1373    0.7363   26.6350 C   0  0  0  0  0  0  0  0  0  0  0  0
  -28.1438    1.4322   25.4880 C   0  0  0  0  0  0  0  0  0  0  0  0
  -29.2800   -0.5524   28.2479 C   0  0  0  0  0  0  0  0  0  0  0  0
  -29.2552    0.0950   27.0446 C   0  0  0  0  0  0  0  0  0  0  0  0
  -28.5317    2.6153   25.4770 C   0  0  0  0  0  0  0  0  0  0  0  0
  -27.6373    0.8030   24.2694 C   0  0  0  0  0  0  0  0  0  0  0  0
  -28.7941    3.4416   26.6231 C   0  0  0  0  0  0  0  0  0  0  0  0
  -29.4079    4.7300   26.5520 C   0  0  0  0  0  0  0  0  0  0  0  0
  -29.5313    5.5646   27.6456 C   0  0  0  0  0  0  0  0  0  0  0  0
  -29.0626    5.0822   28.8721 C   0  0  0  0  0  0  0  0  0  0  0  0
  -28.4455    3.8764   28.9715 C   0  0  0  0  0  0  0  0  0  0  0  0
  -28.2452    3.1425   27.8719 C   0  0  0  0  0  0  0  0  0  0  0  0
  -30.8677    0.2976   26.1572 Br  0  0  0  0  0  0  0  0  0  0  0  0
  -27.8607    3.5067   30.2790 C   0  0  0  0  0  0  0  0  0  0  0  0
  -28.6721    2.9256   31.1511 C   0  0  0  0  0  0  0  0  0  0  0  0
  -26.4602    3.6951   30.5094 C   0  0  0  0  0  0  0  0  0  0  0  0
  -25.8022    2.8673   31.4280 C   0  0  0  0  0  0  0  0  0  0  0  0
  -27.9985    2.2770   32.3204 C   0  0  0  0  0  0  0  0  0  0  0  0
  -26.6173    2.3369   32.5056 C   0  0  0  0  0  0  0  0  0  0  0  0
  -25.7153   -0.3092   29.4125 C   0  0  0  0  0  0  0  0  0  0  0  0
  -24.8842   -1.3332   29.1055 C   0  0  0  0  0  0  0  0  0  0  0  0
  -25.0123   -2.4788   29.2049 C   0  0  0  0  0  0  0  0  0  0  0  0
  -24.3465   -3.4780   28.7393 Cl  0  0  0  0  0  0  0  0  0  0  0  0
  -26.1984   -2.9684   30.1130 C   0  0  0  0  0  0  0  0  0  0  0  0
  -30.0550    2.8057   31.0408 C   0  0  0  0  0  0  0  0  0  0  0  0
  -30.7169    1.7227   31.5423 C   0  0  0  0  0  0  0  0  0  0  0  0
  -30.1846    0.9197   32.2022 C   0  0  0  0  0  0  0  0  0  0  0  0
  4  5  1  0
  5  8  2  3
  5  9  1  0
  8 10  1  0
  7 16  1  0
 14 17  1  0
  2 23  1  0
 23 24  1  0
 24 25  1  0
 25 26  1  0
 25 27  1  0
 18 28  1  0
 28 29  2  3
 29 30  1  0
 17 18  2  0
 18 21  1  0
 21 22  2  0
 22 20  1  0
 20 19  2  0
 19 17  1  0
 10 11  2  0
 11 12  1  0
 12 13  2  0
 13 14  1  0
 14 15  2  0
 15 10  1  0
  1  2  2  0
  2  3  1  0
  3  4  2  0
  4  7  1  0
  7  6  2  0
  6  1  1  0
M  END

$$$$
