No_3462-gen_results/8p0m/2024-11-27-11-27-31/
     RDKit          3D

 21 23  0  0  0  0  0  0  0  0999 V2000
  -28.0162   -0.8135   28.8779 C   0  0  0  0  0  0  0  0  0  0  0  0
  -28.4690   -0.7850   29.8287 C   0  0  0  0  0  0  0  0  0  0  0  0
  -26.5455   -0.8762   28.8500 C   0  0  0  0  0  0  0  0  0  0  0  0
  -25.8974   -0.8267   29.8894 C   0  0  0  0  0  0  0  0  0  0  0  0
  -26.4945   -0.7976   31.1740 C   0  0  0  0  0  0  0  0  0  0  0  0
  -27.8589   -0.7585   31.1651 C   0  0  0  0  0  0  0  0  0  0  0  0
  -24.3777   -0.8594   29.9373 C   0  0  0  0  0  0  0  0  0  0  0  0
  -23.7571    0.4559   29.9965 C   0  0  0  0  0  0  0  0  0  0  0  0
  -23.2468    1.0270   28.8615 C   0  0  0  0  0  0  0  0  0  0  0  0
  -23.8015    2.1547   28.2108 C   0  0  0  0  0  0  0  0  0  0  0  0
  -23.4648    2.3885   26.8594 C   0  0  0  0  0  0  0  0  0  0  0  0
  -22.3085    1.7966   26.3710 C   0  0  0  0  0  0  0  0  0  0  0  0
  -21.5947    0.9681   27.1657 C   0  0  0  0  0  0  0  0  0  0  0  0
  -22.0535    0.4785   28.3776 C   0  0  0  0  0  0  0  0  0  0  0  0
  -25.8731   -0.8795   27.6341 O   0  0  0  0  0  0  0  0  0  0  0  0
  -25.0766    2.7554   28.7030 C   0  0  0  0  0  0  0  0  0  0  0  0
  -25.1940    3.2689   29.8709 C   0  0  0  0  0  0  0  0  0  0  0  0
  -26.1736    2.7698   27.8190 C   0  0  0  0  0  0  0  0  0  0  0  0
  -26.3697    3.8160   30.4386 C   0  0  0  0  0  0  0  0  0  0  0  0
  -27.4094    3.3718   28.3265 C   0  0  0  0  0  0  0  0  0  0  0  0
  -27.4889    3.8298   29.6046 C   0  0  0  0  0  0  0  0  0  0  0  0
  4  7  1  0
  7  8  1  0
  8  9  1  0
  3 15  1  0
 10 16  1  0
  1  2  2  0
  2  6  1  0
  6  5  2  0
  5  4  1  0
  4  3  2  0
  3  1  1  0
  9 10  1  0
 10 11  2  0
 11 12  1  0
 12 13  2  0
 13 14  1  0
 14  9  2  0
 16 17  2  0
 17 19  1  0
 19 21  2  0
 21 20  1  0
 20 18  2  0
 18 16  1  0
M  END

$$$$
