No_3231-gen_results/8p0m/2024-11-27-11-27-31/
     RDKit          3D

 27 30  0  0  0  0  0  0  0  0999 V2000
  -28.0162   -0.8135   28.8779 C   0  0  0  0  0  0  0  0  0  0  0  0
  -27.0636   -0.1189   28.6079 C   0  0  0  0  0  0  0  0  0  0  0  0
  -27.0010    0.6913   27.4910 C   0  0  0  0  0  0  0  0  0  0  0  0
  -25.8548    1.4825   27.0830 C   0  0  0  0  0  0  0  0  0  0  0  0
  -24.6901    1.4526   27.8807 C   0  0  0  0  0  0  0  0  0  0  0  0
  -24.7379    0.6010   29.0416 C   0  0  0  0  0  0  0  0  0  0  0  0
  -25.8234   -0.1688   29.3887 C   0  0  0  0  0  0  0  0  0  0  0  0
  -28.7350   -0.4637   30.1419 C   0  0  0  0  0  0  0  0  0  0  0  0
  -28.7831    0.6118   30.5175 C   0  0  0  0  0  0  0  0  0  0  0  0
  -29.5935    0.9569   31.7959 C   0  0  0  0  0  0  0  0  0  0  0  0
  -29.6638    2.2606   32.3369 C   0  0  0  0  0  0  0  0  0  0  0  0
  -28.9307    3.2526   31.5902 C   0  0  0  0  0  0  0  0  0  0  0  0
  -28.1589    2.9762   30.4866 C   0  0  0  0  0  0  0  0  0  0  0  0
  -28.0496    1.7222   30.0223 C   0  0  0  0  0  0  0  0  0  0  0  0
  -23.4487    2.0950   27.5089 C   0  0  0  0  0  0  0  0  0  0  0  0
  -22.2336    1.6291   27.5745 C   0  0  0  0  0  0  0  0  0  0  0  0
  -23.7166    2.7506   26.1132 C   0  0  0  0  0  0  0  0  0  0  0  0
  -27.3716    4.1299   29.8955 C   0  0  0  0  0  0  0  0  0  0  0  0
  -26.8210    4.9730   30.6067 C   0  0  0  0  0  0  0  0  0  0  0  0
  -27.3235    4.1770   28.4646 C   0  0  0  0  0  0  0  0  0  0  0  0
  -26.4507    5.1800   27.8915 C   0  0  0  0  0  0  0  0  0  0  0  0
  -25.9939    6.0438   30.0913 C   0  0  0  0  0  0  0  0  0  0  0  0
  -25.8205    6.1144   28.7049 C   0  0  0  0  0  0  0  0  0  0  0  0
  -29.8332   -1.2204   30.3033 F   0  0  0  0  0  0  0  0  0  0  0  0
  -25.8750    2.2163   25.9077 C   0  0  0  0  0  0  0  0  0  0  0  0
  -24.9077    2.7046   25.5590 N   0  0  0  0  0  0  0  0  0  0  0  0
  -27.0586    2.3632   25.4463 O   0  0  0  0  0  0  0  0  0  0  0  0
  1  2  1  0
  1  8  1  0
  5 15  1  0
 15 16  1  0
 15 17  1  0
 13 18  1  0
  8 24  1  0
  4 25  1  0
 25 26  1  0
 25 27  2  0
  8  9  1  0
 17 26  1  0
  2  3  2  0
  3  4  1  0
  4  5  2  0
  5  6  1  0
  6  7  2  0
  7  2  1  0
 18 19  2  0
 19 22  1  0
 22 23  2  0
 23 21  1  0
 21 20  2  0
 20 18  1  0
  9 10  2  0
 10 11  1  0
 11 12  2  0
 12 13  1  0
 13 14  2  0
 14  9  1  0
M  END

$$$$
