No_3319-gen_results/8p0m/2024-11-27-11-27-31/
     RDKit          3D

 15 15  0  0  0  0  0  0  0  0999 V2000
  -28.0727   -1.2542   28.5316 F   0  0  0  0  0  0  0  0  0  0  0  0
  -27.3591   -0.3792   28.7224 C   0  0  0  0  0  0  0  0  0  0  0  0
  -26.3180   -0.6608   29.1159 F   0  0  0  0  0  0  0  0  0  0  0  0
  -27.6804    0.9274   28.3001 C   0  0  0  0  0  0  0  0  0  0  0  0
  -26.7009    1.9033   28.5926 C   0  0  0  0  0  0  0  0  0  0  0  0
  -26.7227    2.6957   29.5151 C   0  0  0  0  0  0  0  0  0  0  0  0
  -25.6852    3.7062   29.7488 C   0  0  0  0  0  0  0  0  0  0  0  0
  -24.6879    3.7604   28.8137 C   0  0  0  0  0  0  0  0  0  0  0  0
  -24.6188    2.9378   27.7284 C   0  0  0  0  0  0  0  0  0  0  0  0
  -25.6660    1.9800   27.5530 C   0  0  0  0  0  0  0  0  0  0  0  0
  -28.4587    1.1029   27.3805 O   0  0  0  0  0  0  0  0  0  0  0  0
  -29.7605    1.1055   27.7527 C   0  0  0  0  0  0  0  0  0  0  0  0
  -30.5994    0.6981   26.7608 C   0  0  0  0  0  0  0  0  0  0  0  0
  -31.4454   -0.1320   27.0325 O   0  0  0  0  0  0  0  0  0  0  0  0
  -30.7176    1.4044   25.6443 N   0  0  0  0  0  0  0  0  0  0  0  0
  1  2  1  0
  2  3  1  0
  2  4  1  0
  4  5  1  0
  4 11  1  0
 11 12  1  0
 12 13  1  0
 13 14  2  0
 13 15  1  0
  5  6  2  0
  6  7  1  0
  7  8  2  0
  8  9  1  0
  9 10  2  0
 10  5  1  0
M  END

$$$$
