No_3433-gen_results/8p0m/2024-11-27-11-27-31/
     RDKit          3D

 13 13  0  0  0  0  0  0  0  0999 V2000
  -28.0544   -1.0498   28.7246 N   0  0  0  0  0  0  0  0  0  0  0  0
  -27.7460   -0.0733   29.0098 C   0  0  0  0  0  0  0  0  0  0  0  0
  -27.1737    0.7565   28.1070 C   0  0  0  0  0  0  0  0  0  0  0  0
  -25.8200    1.2606   28.2149 C   0  0  0  0  0  0  0  0  0  0  0  0
  -25.3545    1.5793   29.1552 C   0  0  0  0  0  0  0  0  0  0  0  0
  -23.9775    2.0156   29.3943 C   0  0  0  0  0  0  0  0  0  0  0  0
  -23.1861    2.0157   28.2134 C   0  0  0  0  0  0  0  0  0  0  0  0
  -23.7038    1.6323   27.0142 C   0  0  0  0  0  0  0  0  0  0  0  0
  -25.0363    1.2483   26.9706 C   0  0  0  0  0  0  0  0  0  0  0  0
  -27.9681    1.0939   26.9549 C   0  0  0  0  0  0  0  0  0  0  0  0
  -27.6089    1.5878   25.9817 C   0  0  0  0  0  0  0  0  0  0  0  0
  -28.6091    1.8434   24.9082 C   0  0  0  0  0  0  0  0  0  0  0  0
  -29.8078    1.3444   25.1374 C   0  0  0  0  0  0  0  0  0  0  0  0
  1  2  1  0
  2  3  1  0
  3  4  1  0
  3 10  1  0
 10 11  2  3
 11 12  1  0
 12 13  2  0
  4  5  2  0
  5  6  1  0
  6  7  2  0
  7  8  1  0
  8  9  2  0
  9  4  1  0
M  END

$$$$
