No_3592-gen_results/8p0m/2024-11-27-11-27-31/
     RDKit          3D

 27 30  0  0  0  0  0  0  0  0999 V2000
  -28.0162   -0.8135   28.8779 C   0  0  0  0  0  0  0  0  0  0  0  0
  -28.4690   -0.7850   29.8287 C   0  0  0  0  0  0  0  0  0  0  0  0
  -28.1960    0.3478   28.0550 C   0  0  0  0  0  0  0  0  0  0  0  0
  -29.0191    1.3501   28.3782 C   0  0  0  0  0  0  0  0  0  0  0  0
  -29.4107    0.1803   30.3782 C   0  0  0  0  0  0  0  0  0  0  0  0
  -29.6059    1.2495   29.6193 C   0  0  0  0  0  0  0  0  0  0  0  0
  -27.5400    0.3372   26.8421 F   0  0  0  0  0  0  0  0  0  0  0  0
  -30.0196   -0.0247   31.7541 C   0  0  0  0  0  0  0  0  0  0  0  0
  -29.9474    0.9492   32.5725 C   0  0  0  0  0  0  0  0  0  0  0  0
  -29.1007    2.0898   32.3286 C   0  0  0  0  0  0  0  0  0  0  0  0
  -27.9521    2.3009   32.5672 C   0  0  0  0  0  0  0  0  0  0  0  0
  -27.1221    3.5113   32.3150 C   0  0  0  0  0  0  0  0  0  0  0  0
  -25.7235    3.5734   32.4896 C   0  0  0  0  0  0  0  0  0  0  0  0
  -25.0060    4.7292   32.1701 C   0  0  0  0  0  0  0  0  0  0  0  0
  -25.6136    5.7897   31.4928 C   0  0  0  0  0  0  0  0  0  0  0  0
  -26.9586    5.6997   31.2511 C   0  0  0  0  0  0  0  0  0  0  0  0
  -27.7113    4.6245   31.6126 C   0  0  0  0  0  0  0  0  0  0  0  0
  -27.1130    1.3093   33.3028 C   0  0  0  0  0  0  0  0  0  0  0  0
  -27.1538    1.2412   34.6297 C   0  0  0  0  0  0  0  0  0  0  0  0
  -26.4308    0.1605   35.2436 C   0  0  0  0  0  0  0  0  0  0  0  0
  -25.5303   -0.6105   34.4844 C   0  0  0  0  0  0  0  0  0  0  0  0
  -26.2319    0.4877   32.5985 C   0  0  0  0  0  0  0  0  0  0  0  0
  -25.4756   -0.4447   33.1775 C   0  0  0  0  0  0  0  0  0  0  0  0
  -30.8235   -1.1687   31.7837 C   0  0  0  0  0  0  0  0  0  0  0  0
  -31.2807   -1.5087   32.9384 C   0  0  0  0  0  0  0  0  0  0  0  0
  -31.2621   -0.4764   34.0123 C   0  0  0  0  0  0  0  0  0  0  0  0
  -30.5777    0.7428   33.9081 C   0  0  0  0  0  0  0  0  0  0  0  0
  3  7  1  0
  5  8  1  0
  9 10  1  0
 10 11  2  3
 11 12  1  0
 11 18  1  0
  8  9  2  0
  9 27  1  0
 27 26  2  0
 26 25  1  0
 25 24  2  0
 24  8  1  0
 18 19  2  0
 19 20  1  0
 20 21  2  0
 21 23  1  0
 23 22  2  0
 22 18  1  0
 12 13  2  0
 13 14  1  0
 14 15  2  0
 15 16  1  0
 16 17  2  0
 17 12  1  0
  1  2  2  0
  2  5  1  0
  5  6  2  0
  6  4  1  0
  4  3  2  0
  3  1  1  0
M  END

$$$$
