No_3188-gen_results/8p0m/2024-11-27-11-27-31/
     RDKit          3D

 32 34  0  0  0  0  0  0  0  0999 V2000
  -28.0162   -0.8135   28.8779 C   0  0  0  0  0  0  0  0  0  0  0  0
  -27.0636   -0.1190   28.6079 C   0  0  0  0  0  0  0  0  0  0  0  0
  -25.7647   -0.3897   29.0360 C   0  0  0  0  0  0  0  0  0  0  0  0
  -24.5516    0.4058   28.7646 C   0  0  0  0  0  0  0  0  0  0  0  0
  -24.6957    1.4480   27.7988 C   0  0  0  0  0  0  0  0  0  0  0  0
  -26.0010    1.6784   27.2965 C   0  0  0  0  0  0  0  0  0  0  0  0
  -27.0736    0.9682   27.6500 C   0  0  0  0  0  0  0  0  0  0  0  0
  -27.9396   -1.6461   30.1197 C   0  0  0  0  0  0  0  0  0  0  0  0
  -26.6414   -2.1383   30.4940 C   0  0  0  0  0  0  0  0  0  0  0  0
  -25.5285   -1.4022   30.0886 C   0  0  0  0  0  0  0  0  0  0  0  0
  -23.5019    2.2360   27.4345 C   0  0  0  0  0  0  0  0  0  0  0  0
  -23.5458    2.9409   26.3623 O   0  0  0  0  0  0  0  0  0  0  0  0
  -22.3677    2.0956   28.0281 O   0  0  0  0  0  0  0  0  0  0  0  0
  -29.0871   -2.4899   30.5499 C   0  0  0  0  0  0  0  0  0  0  0  0
  -30.0278   -2.0336   30.9109 O   0  0  0  0  0  0  0  0  0  0  0  0
  -28.8739   -3.7791   30.5829 O   0  0  0  0  0  0  0  0  0  0  0  0
  -28.3878    1.3007   26.9920 C   0  0  0  0  0  0  0  0  0  0  0  0
  -29.0987    2.0083   27.5278 O   0  0  0  0  0  0  0  0  0  0  0  0
  -28.5839    0.6518   25.8302 N   0  0  0  0  0  0  0  0  0  0  0  0
  -29.8162    0.7533   25.0877 C   0  0  0  0  0  0  0  0  0  0  0  0
  -27.5989   -0.1269   25.0687 C   0  0  0  0  0  0  0  0  0  0  0  0
  -27.9248   -0.6979   23.8858 C   0  0  0  0  0  0  0  0  0  0  0  0
  -30.0983    0.0026   24.0153 C   0  0  0  0  0  0  0  0  0  0  0  0
  -29.1329   -0.7014   23.3620 C   0  0  0  0  0  0  0  0  0  0  0  0
  -31.4723   -0.0178   23.3829 C   0  0  0  0  0  0  0  0  0  0  0  0
  -32.3686   -0.9339   23.8461 N   0  0  0  0  0  0  0  0  0  0  0  0
  -32.6033   -1.0539   25.1860 C   0  0  0  0  0  0  0  0  0  0  0  0
  -33.2404   -2.2717   25.6537 C   0  0  0  0  0  0  0  0  0  0  0  0
  -33.4438   -3.1039   24.9607 C   0  0  0  0  0  0  0  0  0  0  0  0
  -34.1583   -4.3054   25.4326 C   0  0  0  0  0  0  0  0  0  0  0  0
  -34.3808   -4.4651   26.7034 C   0  0  0  0  0  0  0  0  0  0  0  0
  -34.0844   -3.4832   27.6169 C   0  0  0  0  0  0  0  0  0  0  0  0
  5 11  1  0
 11 12  2  0
 11 13  1  0
  8 14  1  0
 14 15  2  0
 14 16  1  0
  7 17  1  0
 17 18  2  0
 17 19  1  0
 19 20  1  0
 19 21  1  0
 22 24  1  0
 23 24  1  0
 23 25  1  0
 25 26  1  0
 26 27  1  0
 27 28  2  3
 28 29  1  0
 29 30  1  0
 30 31  2  3
 31 32  1  0
 20 23  1  0
 22 21  1  0
  3  4  1  0
  4  5  2  0
  5  6  1  0
  6  7  2  0
  7  2  1  0
  1  2  2  0
  2  3  1  0
  3 10  2  0
 10  9  1  0
  9  8  2  0
  8  1  1  0
M  END

$$$$
