No_3536-gen_results/8p0m/2024-11-27-11-27-31/
     RDKit          3D

 28 31  0  0  0  0  0  0  0  0999 V2000
  -28.0162   -0.8135   28.8779 C   0  0  0  0  0  0  0  0  0  0  0  0
  -27.0636   -0.1190   28.6079 C   0  0  0  0  0  0  0  0  0  0  0  0
  -25.7923   -0.4302   29.0761 C   0  0  0  0  0  0  0  0  0  0  0  0
  -25.5756   -1.5654   29.9363 C   0  0  0  0  0  0  0  0  0  0  0  0
  -26.7354   -2.3004   30.2173 C   0  0  0  0  0  0  0  0  0  0  0  0
  -27.8207   -1.9449   29.7721 C   0  0  0  0  0  0  0  0  0  0  0  0
  -27.3282    1.0115   27.8520 N   0  0  0  0  0  0  0  0  0  0  0  0
  -26.3294    1.8028   27.5153 C   0  0  0  0  0  0  0  0  0  0  0  0
  -25.0391    1.5751   27.8658 C   0  0  0  0  0  0  0  0  0  0  0  0
  -24.7109    0.4356   28.7064 C   0  0  0  0  0  0  0  0  0  0  0  0
  -23.3121    0.1894   29.0934 C   0  0  0  0  0  0  0  0  0  0  0  0
  -22.6640    0.7388   29.7137 C   0  0  0  0  0  0  0  0  0  0  0  0
  -22.9052   -1.2060   28.6238 C   0  0  0  0  0  0  0  0  0  0  0  0
  -21.6341   -1.4792   29.0520 N   0  0  0  0  0  0  0  0  0  0  0  0
  -21.3272    0.4980   30.1151 N   0  0  0  0  0  0  0  0  0  0  0  0
  -20.8839   -0.6616   29.7014 C   0  0  0  0  0  0  0  0  0  0  0  0
  -26.4458    2.7941   26.7066 F   0  0  0  0  0  0  0  0  0  0  0  0
  -28.6423    1.2602   27.3111 C   0  0  0  0  0  0  0  0  0  0  0  0
  -29.5269    1.8028   28.2240 C   0  0  0  0  0  0  0  0  0  0  0  0
  -29.2882    2.4291   29.1543 C   0  0  0  0  0  0  0  0  0  0  0  0
  -30.2744    3.0093   30.1339 C   0  0  0  0  0  0  0  0  0  0  0  0
  -31.5823    2.7167   29.8292 C   0  0  0  0  0  0  0  0  0  0  0  0
  -31.9157    1.9791   28.7527 C   0  0  0  0  0  0  0  0  0  0  0  0
  -30.9473    1.4825   27.9127 C   0  0  0  0  0  0  0  0  0  0  0  0
  -28.7923    1.0319   26.1250 O   0  0  0  0  0  0  0  0  0  0  0  0
  -29.1076   -2.7807   30.1402 C   0  0  0  0  0  0  0  0  0  0  0  0
  -30.1430   -2.2716   30.1776 O   0  0  0  0  0  0  0  0  0  0  0  0
  -28.9523   -3.9707   30.4769 O   0  0  0  0  0  0  0  0  0  0  0  0
  2  7  1  0
  7  8  1  0
  3 10  1  0
  9 10  1  0
 10 11  1  0
  8 17  1  0
  7 18  1  0
 18 19  1  0
 18 25  2  0
  6 26  1  0
 26 27  1  0
 26 28  2  0
  9  8  1  0
 11 12  2  0
 12 15  1  0
 15 16  2  0
 16 14  1  0
 14 13  2  0
 13 11  1  0
  1  2  2  0
  2  3  1  0
  3  4  2  0
  4  5  1  0
  5  6  2  0
  6  1  1  0
 19 20  2  0
 20 21  1  0
 21 22  2  0
 22 23  1  0
 23 24  2  0
 24 19  1  0
M  END

$$$$
