No_3650-gen_results/8p0m/2024-11-27-11-27-31/
     RDKit          3D

 22 24  0  0  0  0  0  0  0  0999 V2000
  -28.1229   -1.3353   28.4874 O   0  0  0  0  0  0  0  0  0  0  0  0
  -27.0637   -0.8242   28.8687 C   0  0  0  0  0  0  0  0  0  0  0  0
  -26.4017   -0.0623   28.6224 C   0  0  0  0  0  0  0  0  0  0  0  0
  -26.5721   -1.5844   30.1172 N   0  0  0  0  0  0  0  0  0  0  0  0
  -26.6982    0.9644   27.6453 C   0  0  0  0  0  0  0  0  0  0  0  0
  -25.7832    1.8129   27.0351 C   0  0  0  0  0  0  0  0  0  0  0  0
  -24.4346    1.9091   27.5889 C   0  0  0  0  0  0  0  0  0  0  0  0
  -24.0815    1.0037   28.5745 C   0  0  0  0  0  0  0  0  0  0  0  0
  -24.9283    0.0868   29.0484 C   0  0  0  0  0  0  0  0  0  0  0  0
  -27.3909   -2.7710   30.6241 C   0  0  0  0  0  0  0  0  0  0  0  0
  -22.2946    1.0624   29.2085 Br  0  0  0  0  0  0  0  0  0  0  0  0
  -25.3396   -1.3732   30.7704 C   0  0  0  0  0  0  0  0  0  0  0  0
  -24.5408   -0.6603   30.1854 C   0  0  0  0  0  0  0  0  0  0  0  0
  -28.4235   -2.4643   31.5579 C   0  0  0  0  0  0  0  0  0  0  0  0
  -29.4329   -3.4324   31.6565 C   0  0  0  0  0  0  0  0  0  0  0  0
  -30.5654   -3.1532   32.3772 C   0  0  0  0  0  0  0  0  0  0  0  0
  -30.9157   -2.1811   32.4318 C   0  0  0  0  0  0  0  0  0  0  0  0
  -30.0285   -0.9484   32.3822 C   0  0  0  0  0  0  0  0  0  0  0  0
  -28.7577   -1.1140   31.8690 C   0  0  0  0  0  0  0  0  0  0  0  0
  -26.9823   -3.8310   30.2672 O   0  0  0  0  0  0  0  0  0  0  0  0
  -28.2594    0.9970   26.9651 Cl  0  0  0  0  0  0  0  0  0  0  0  0
  -23.5752    2.7939   27.0605 F   0  0  0  0  0  0  0  0  0  0  0  0
  1  2  2  0
  2  3  1  0
  2  4  1  0
  4 10  1  0
  8 11  1  0
  4 12  1  0
  9 13  1  0
 12 13  1  0
 10 14  1  0
 10 20  2  0
  5 21  1  0
  7 22  1  0
 14 15  2  0
 15 16  1  0
 16 17  2  0
 17 18  1  0
 18 19  2  0
 19 14  1  0
  3  5  2  0
  5  6  1  0
  6  7  2  0
  7  8  1  0
  8  9  2  0
  9  3  1  0
M  END

$$$$
