No_3155-gen_results/8p0m/2024-11-27-11-27-31/
     RDKit          3D

 21 22  0  0  0  0  0  0  0  0999 V2000
  -28.0162   -0.8135   28.8779 C   0  0  0  0  0  0  0  0  0  0  0  0
  -28.4690   -0.7850   29.8287 C   0  0  0  0  0  0  0  0  0  0  0  0
  -27.0871    0.2903   28.6377 C   0  0  0  0  0  0  0  0  0  0  0  0
  -26.2516    0.4114   27.4223 C   0  0  0  0  0  0  0  0  0  0  0  0
  -28.3913    0.1041   30.9805 C   0  0  0  0  0  0  0  0  0  0  0  0
  -27.5332    1.1666   30.7866 C   0  0  0  0  0  0  0  0  0  0  0  0
  -26.8281    1.2557   29.6454 C   0  0  0  0  0  0  0  0  0  0  0  0
  -25.1892    0.4692   27.3616 N   0  0  0  0  0  0  0  0  0  0  0  0
  -26.9612    0.8218   26.4212 F   0  0  0  0  0  0  0  0  0  0  0  0
  -24.2238   -0.0887   28.2471 C   0  0  0  0  0  0  0  0  0  0  0  0
  -24.0748   -1.3376   28.6410 C   0  0  0  0  0  0  0  0  0  0  0  0
  -23.1859   -1.7199   29.5625 C   0  0  0  0  0  0  0  0  0  0  0  0
  -23.2395    0.9278   28.7868 C   0  0  0  0  0  0  0  0  0  0  0  0
  -22.2762    0.4658   29.6651 C   0  0  0  0  0  0  0  0  0  0  0  0
  -22.2270   -0.8200   30.1094 C   0  0  0  0  0  0  0  0  0  0  0  0
  -24.4414    0.9052   26.1186 C   0  0  0  0  0  0  0  0  0  0  0  0
  -27.3342    2.1680   31.8810 C   0  0  0  0  0  0  0  0  0  0  0  0
  -27.7527    3.1267   31.8987 O   0  0  0  0  0  0  0  0  0  0  0  0
  -26.4544    1.7171   32.7942 O   0  0  0  0  0  0  0  0  0  0  0  0
  -23.2124    2.3226   28.3487 C   0  0  0  0  0  0  0  0  0  0  0  0
  -23.0635    2.8427   27.1528 O   0  0  0  0  0  0  0  0  0  0  0  0
  3  4  1  0
  4  8  1  0
  4  9  1  0
  8 10  1  0
  8 16  1  0
  6 17  1  0
 17 18  2  0
 17 19  1  0
 13 20  1  0
 20 21  2  0
  1  2  2  0
  2  5  1  0
  5  6  2  0
  6  7  1  0
  7  3  2  0
  3  1  1  0
 10 11  2  0
 11 12  1  0
 12 15  2  0
 15 14  1  0
 14 13  2  0
 13 10  1  0
M  END

$$$$
