No_3919-gen_results/8p0m/2024-11-27-11-27-31/
     RDKit          3D

 17 18  0  0  0  0  0  0  0  0999 V2000
  -28.1229   -1.3353   28.4874 O   0  0  0  0  0  0  0  0  0  0  0  0
  -27.0637   -0.8242   28.8687 C   0  0  0  0  0  0  0  0  0  0  0  0
  -25.9464   -1.0396   28.8492 C   0  0  0  0  0  0  0  0  0  0  0  0
  -24.7602   -0.1562   29.1644 C   0  0  0  0  0  0  0  0  0  0  0  0
  -25.0917    1.0791   29.6491 C   0  0  0  0  0  0  0  0  0  0  0  0
  -26.4090    1.4383   29.7067 C   0  0  0  0  0  0  0  0  0  0  0  0
  -27.3694    0.6586   29.4148 C   0  0  0  0  0  0  0  0  0  0  0  0
  -23.3561   -0.5639   29.1206 C   0  0  0  0  0  0  0  0  0  0  0  0
  -22.4322    0.2418   28.4552 C   0  0  0  0  0  0  0  0  0  0  0  0
  -21.0496   -0.0618   28.4524 C   0  0  0  0  0  0  0  0  0  0  0  0
  -22.8384    1.3991   27.7363 C   0  0  0  0  0  0  0  0  0  0  0  0
  -21.8445    2.0978   26.9545 C   0  0  0  0  0  0  0  0  0  0  0  0
  -20.1456    0.7412   27.9050 N   0  0  0  0  0  0  0  0  0  0  0  0
  -20.5697    1.8586   27.2040 C   0  0  0  0  0  0  0  0  0  0  0  0
  -26.7003    2.8349   30.2923 C   0  0  0  0  0  0  0  0  0  0  0  0
  -25.9212    3.5361   30.2383 O   0  0  0  0  0  0  0  0  0  0  0  0
  -27.8776    3.0007   30.7374 O   0  0  0  0  0  0  0  0  0  0  0  0
  1  2  2  0
  2  3  1  0
  3  4  1  0
  4  5  1  0
  5  6  1  0
  2  7  1  0
  6  7  1  0
  4  8  1  0
  6 15  1  0
 15 16  2  0
 15 17  1  0
  8  9  1  0
  9 10  2  0
 10 13  1  0
 13 14  2  0
 14 12  1  0
 12 11  2  0
 11  9  1  0
M  END

$$$$
