No_345-gen_results/8p0m/2024-11-27-11-27-31/
     RDKit          3D

 33 35  0  0  0  0  0  0  0  0999 V2000
  -28.0162   -0.8135   28.8779 C   0  0  0  0  0  0  0  0  0  0  0  0
  -27.0636   -0.1189   28.6079 C   0  0  0  0  0  0  0  0  0  0  0  0
  -25.7647   -0.3897   29.0360 C   0  0  0  0  0  0  0  0  0  0  0  0
  -25.5296   -1.5302   29.9014 C   0  0  0  0  0  0  0  0  0  0  0  0
  -26.6577   -2.2915   30.2035 C   0  0  0  0  0  0  0  0  0  0  0  0
  -27.8548   -1.9555   29.7630 C   0  0  0  0  0  0  0  0  0  0  0  0
  -24.5349    0.4128   28.7431 C   0  0  0  0  0  0  0  0  0  0  0  0
  -24.0543    1.3255   29.5757 C   0  0  0  0  0  0  0  0  0  0  0  0
  -23.0001    2.0451   29.2246 O   0  0  0  0  0  0  0  0  0  0  0  0
  -24.6760    1.6066   30.6853 O   0  0  0  0  0  0  0  0  0  0  0  0
  -28.9506   -2.7260   30.1355 O   0  0  0  0  0  0  0  0  0  0  0  0
  -28.7845   -4.0099   30.6376 C   0  0  0  0  0  0  0  0  0  0  0  0
  -29.8130   -4.3094   31.6200 C   0  0  0  0  0  0  0  0  0  0  0  0
  -29.9331   -3.6964   32.4293 O   0  0  0  0  0  0  0  0  0  0  0  0
  -30.4238   -5.5496   31.3974 N   0  0  0  0  0  0  0  0  0  0  0  0
  -31.4012   -6.0435   32.3823 C   0  0  0  0  0  0  0  0  0  0  0  0
  -27.1647    0.9960   27.5946 C   0  0  0  0  0  0  0  0  0  0  0  0
  -27.7354    0.9304   26.6548 O   0  0  0  0  0  0  0  0  0  0  0  0
  -26.2029    1.9983   27.7619 O   0  0  0  0  0  0  0  0  0  0  0  0
  -26.5286    3.0439   27.5538 C   0  0  0  0  0  0  0  0  0  0  0  0
  -25.3985    3.9744   27.3280 C   0  0  0  0  0  0  0  0  0  0  0  0
  -31.8361   -7.2043   32.0797 C   0  0  0  0  0  0  0  0  0  0  0  0
  -31.8184   -7.7111   31.0675 C   0  0  0  0  0  0  0  0  0  0  0  0
  -30.9760   -7.2234   29.9368 C   0  0  0  0  0  0  0  0  0  0  0  0
  -30.3458   -6.0980   30.1749 C   0  0  0  0  0  0  0  0  0  0  0  0
  -27.3878    3.7785   28.5829 C   0  0  0  0  0  0  0  0  0  0  0  0
  -27.7935    4.7284   28.6256 C   0  0  0  0  0  0  0  0  0  0  0  0
  -25.6333    5.4541   27.3065 C   0  0  0  0  0  0  0  0  0  0  0  0
  -26.6873    5.8716   28.2564 C   0  0  0  0  0  0  0  0  0  0  0  0
  -27.8723    2.8608   29.5307 O   0  0  0  0  0  0  0  0  0  0  0  0
  -29.1285    2.9239   29.9485 C   0  0  0  0  0  0  0  0  0  0  0  0
  -30.0698    2.9460   29.3456 C   0  0  0  0  0  0  0  0  0  0  0  0
  -31.3916    2.8851   29.8649 C   0  0  0  0  0  0  0  0  0  0  0  0
  3  7  1  0
  7  8  1  0
  8  9  2  0
  8 10  1  0
  6 11  1  0
 11 12  1  0
 12 13  1  0
 13 14  2  0
 13 15  1  0
 15 16  1  0
  2 17  1  0
 17 18  2  0
 17 19  1  0
 19 20  1  0
 22 23  1  0
 15 25  1  0
 24 25  1  0
 26 30  1  0
 30 31  1  0
 31 32  2  3
 32 33  1  0
 16 22  1  0
 23 24  1  0
  1  2  2  0
  2  3  1  0
  3  4  2  0
  4  5  1  0
  5  6  2  0
  6  1  1  0
 20 21  2  0
 21 28  1  0
 28 29  2  0
 29 27  1  0
 27 26  2  0
 26 20  1  0
M  END

$$$$
