No_3238-gen_results/8p0m/2024-11-27-11-27-31/
     RDKit          3D

 24 24  0  0  0  0  0  0  0  0999 V2000
  -28.0162   -0.8135   28.8779 C   0  0  0  0  0  0  0  0  0  0  0  0
  -28.4690   -0.7850   29.8287 C   0  0  0  0  0  0  0  0  0  0  0  0
  -27.0871    0.2903   28.6377 C   0  0  0  0  0  0  0  0  0  0  0  0
  -26.2516    0.4114   27.4223 C   0  0  0  0  0  0  0  0  0  0  0  0
  -28.3913    0.1041   30.9805 C   0  0  0  0  0  0  0  0  0  0  0  0
  -27.5332    1.1666   30.7866 C   0  0  0  0  0  0  0  0  0  0  0  0
  -26.8281    1.2557   29.6454 C   0  0  0  0  0  0  0  0  0  0  0  0
  -26.0545    1.5503   27.3137 F   0  0  0  0  0  0  0  0  0  0  0  0
  -27.0176    0.0242   26.3744 F   0  0  0  0  0  0  0  0  0  0  0  0
  -25.1462   -0.3469   27.5023 F   0  0  0  0  0  0  0  0  0  0  0  0
  -29.4545   -2.0082   30.2222 C   0  0  0  0  0  0  0  0  0  0  0  0
  -30.4869   -1.9745   29.8396 O   0  0  0  0  0  0  0  0  0  0  0  0
  -28.9692   -3.0145   30.9494 O   0  0  0  0  0  0  0  0  0  0  0  0
  -27.2853    2.3267   32.0311 Cl  0  0  0  0  0  0  0  0  0  0  0  0
  -29.3756   -4.3240   30.6484 C   0  0  0  0  0  0  0  0  0  0  0  0
  -29.6620   -4.6361   29.5602 C   0  0  0  0  0  0  0  0  0  0  0  0
  -30.9128   -4.4995   29.3216 O   0  0  0  0  0  0  0  0  0  0  0  0
  -31.6248   -5.7221   29.1402 C   0  0  0  0  0  0  0  0  0  0  0  0
  -31.7388   -6.0394   27.8770 C   0  0  0  0  0  0  0  0  0  0  0  0
  -31.1541   -5.3464   27.0626 F   0  0  0  0  0  0  0  0  0  0  0  0
  -33.0857   -6.1088   27.3892 O   0  0  0  0  0  0  0  0  0  0  0  0
  -31.9488   -6.3799   30.1305 O   0  0  0  0  0  0  0  0  0  0  0  0
  -31.2292   -7.2899   27.6179 F   0  0  0  0  0  0  0  0  0  0  0  0
  -33.4007   -6.5354   26.3365 C   0  0  0  0  0  0  0  0  0  0  0  0
  3  4  1  0
  4  8  1  0
  4  9  1  0
  4 10  1  0
  2 11  1  0
 11 12  2  0
 11 13  1  0
  6 14  1  0
 13 15  1  0
 15 16  1  0
 16 17  1  0
 17 18  1  0
 18 19  1  0
 19 20  1  0
 19 21  1  0
 18 22  2  0
 19 23  1  0
 21 24  1  0
  1  2  2  0
  2  5  1  0
  5  6  2  0
  6  7  1  0
  7  3  2  0
  3  1  1  0
M  END

$$$$
