No_3405-gen_results/8p0m/2024-11-27-11-27-31/
     RDKit          3D

 21 22  0  0  0  0  0  0  0  0999 V2000
  -28.0162   -0.8135   28.8779 C   0  0  0  0  0  0  0  0  0  0  0  0
  -28.4690   -0.7850   29.8287 C   0  0  0  0  0  0  0  0  0  0  0  0
  -28.1960    0.3478   28.0550 C   0  0  0  0  0  0  0  0  0  0  0  0
  -29.0191    1.3501   28.3782 C   0  0  0  0  0  0  0  0  0  0  0  0
  -29.4107    0.1803   30.3782 C   0  0  0  0  0  0  0  0  0  0  0  0
  -29.6059    1.2495   29.6193 C   0  0  0  0  0  0  0  0  0  0  0  0
  -27.4597    0.3802   26.7091 C   0  0  0  0  0  0  0  0  0  0  0  0
  -26.4659    1.4084   26.5648 C   0  0  0  0  0  0  0  0  0  0  0  0
  -25.2449    1.3279   27.3559 C   0  0  0  0  0  0  0  0  0  0  0  0
  -24.3040    2.2993   27.2314 C   0  0  0  0  0  0  0  0  0  0  0  0
  -23.0865    2.2908   27.9633 C   0  0  0  0  0  0  0  0  0  0  0  0
  -22.7829    1.1055   28.7621 C   0  0  0  0  0  0  0  0  0  0  0  0
  -23.7196    0.1211   28.8175 C   0  0  0  0  0  0  0  0  0  0  0  0
  -24.9189    0.1881   28.1423 C   0  0  0  0  0  0  0  0  0  0  0  0
  -26.7846    2.5543   25.8574 C   0  0  0  0  0  0  0  0  0  0  0  0
  -23.3502   -1.0560   29.6303 C   0  0  0  0  0  0  0  0  0  0  0  0
  -22.4345   -1.5710   29.5683 O   0  0  0  0  0  0  0  0  0  0  0  0
  -24.4330   -1.5099   30.3998 O   0  0  0  0  0  0  0  0  0  0  0  0
  -28.4850   -1.9851   30.9206 C   0  0  0  0  0  0  0  0  0  0  0  0
  -29.2808   -2.8548   30.7618 O   0  0  0  0  0  0  0  0  0  0  0  0
  -27.4735   -2.0367   31.7464 O   0  0  0  0  0  0  0  0  0  0  0  0
  3  7  1  0
  7  8  1  0
  8  9  1  0
  8 15  1  0
 13 16  1  0
 16 17  2  0
 16 18  1  0
  2 19  1  0
 19 20  2  0
 19 21  1  0
  9 10  2  0
 10 11  1  0
 11 12  2  0
 12 13  1  0
 13 14  2  0
 14  9  1  0
  1  2  2  0
  2  5  1  0
  5  6  2  0
  6  4  1  0
  4  3  2  0
  3  1  1  0
M  END

$$$$
