No_3473-gen_results/8p0m/2024-11-27-11-27-31/
     RDKit          3D

 35 39  0  0  0  0  0  0  0  0999 V2000
  -28.0162   -0.8135   28.8779 C   0  0  0  0  0  0  0  0  0  0  0  0
  -27.0636   -0.1189   28.6079 C   0  0  0  0  0  0  0  0  0  0  0  0
  -26.9287    1.1713   29.0083 C   0  0  0  0  0  0  0  0  0  0  0  0
  -25.7702    2.0341   28.6884 C   0  0  0  0  0  0  0  0  0  0  0  0
  -24.7141    1.4431   27.9188 C   0  0  0  0  0  0  0  0  0  0  0  0
  -24.8590    0.0783   27.5836 C   0  0  0  0  0  0  0  0  0  0  0  0
  -25.9647   -0.6606   27.9164 C   0  0  0  0  0  0  0  0  0  0  0  0
  -28.6995   -0.6441   30.0766 N   0  0  0  0  0  0  0  0  0  0  0  0
  -29.4717   -1.1161   30.6970 C   0  0  0  0  0  0  0  0  0  0  0  0
  -29.9696   -2.2055   30.2785 O   0  0  0  0  0  0  0  0  0  0  0  0
  -30.0650   -0.5965   32.0333 C   0  0  0  0  0  0  0  0  0  0  0  0
  -23.5410    2.1715   27.5640 C   0  0  0  0  0  0  0  0  0  0  0  0
  -22.4045    2.2088   27.8940 N   0  0  0  0  0  0  0  0  0  0  0  0
  -23.8104    2.9707   26.2698 C   0  0  0  0  0  0  0  0  0  0  0  0
  -29.8700    0.5731   32.3822 C   0  0  0  0  0  0  0  0  0  0  0  0
  -28.6750    1.1972   31.8652 C   0  0  0  0  0  0  0  0  0  0  0  0
  -28.1292    0.7862   30.6683 C   0  0  0  0  0  0  0  0  0  0  0  0
  -27.3527    1.6220   30.1164 C   0  0  0  0  0  0  0  0  0  0  0  0
  -27.0471    3.1218   30.7965 Cl  0  0  0  0  0  0  0  0  0  0  0  0
  -21.9997    1.3095   28.8645 C   0  0  0  0  0  0  0  0  0  0  0  0
  -20.9064    0.3849   28.4521 C   0  0  0  0  0  0  0  0  0  0  0  0
  -22.6390    1.1376   29.9021 O   0  0  0  0  0  0  0  0  0  0  0  0
  -31.1330   -1.4954   32.6043 C   0  0  0  0  0  0  0  0  0  0  0  0
  -31.5159   -2.5152   32.3695 C   0  0  0  0  0  0  0  0  0  0  0  0
  -32.5122   -3.2156   33.1158 C   0  0  0  0  0  0  0  0  0  0  0  0
  -33.0644   -2.5184   34.2048 C   0  0  0  0  0  0  0  0  0  0  0  0
  -32.6616   -1.3014   34.5152 C   0  0  0  0  0  0  0  0  0  0  0  0
  -31.6602   -0.6712   33.7949 C   0  0  0  0  0  0  0  0  0  0  0  0
  -34.0329   -3.2263   34.9036 O   0  0  0  0  0  0  0  0  0  0  0  0
  -34.0239   -3.1162   36.2124 C   0  0  0  0  0  0  0  0  0  0  0  0
  -34.8100   -2.1119   36.6962 C   0  0  0  0  0  0  0  0  0  0  0  0
  -34.7529   -1.8664   38.0555 C   0  0  0  0  0  0  0  0  0  0  0  0
  -34.1787   -2.8266   38.9108 C   0  0  0  0  0  0  0  0  0  0  0  0
  -33.2934   -3.9771   37.0216 C   0  0  0  0  0  0  0  0  0  0  0  0
  -33.3709   -3.8308   38.3745 C   0  0  0  0  0  0  0  0  0  0  0  0
  1  2  1  0
  1  8  1  0
  8  9  1  0
  9 10  2  0
  9 11  1  0
  5 12  1  0
 12 13  2  3
 12 14  1  0
 11 15  1  0
  8 17  1  0
 16 17  1  0
  3 18  1  0
 17 18  1  0
 18 19  1  0
 13 20  1  0
 20 21  1  0
 20 22  2  0
 11 23  1  0
 26 29  1  0
 29 30  1  0
 15 16  1  0
 23 24  2  0
 24 25  1  0
 25 26  2  0
 26 27  1  0
 27 28  2  0
 28 23  1  0
 30 31  2  0
 31 32  1  0
 32 33  2  0
 33 35  1  0
 35 34  2  0
 34 30  1  0
  2  7  2  0
  7  6  1  0
  6  5  2  0
  5  4  1  0
  4  3  2  0
  3  2  1  0
M  END

$$$$
