No_3568-gen_results/8p0m/2024-11-27-11-27-31/
     RDKit          3D

 20 22  0  0  0  0  0  0  0  0999 V2000
  -28.0162   -0.8135   28.8779 C   0  0  0  0  0  0  0  0  0  0  0  0
  -28.4690   -0.7850   29.8287 C   0  0  0  0  0  0  0  0  0  0  0  0
  -26.5455   -0.8762   28.8500 C   0  0  0  0  0  0  0  0  0  0  0  0
  -25.8041   -1.0324   30.0571 C   0  0  0  0  0  0  0  0  0  0  0  0
  -27.9437   -0.9869   31.2075 C   0  0  0  0  0  0  0  0  0  0  0  0
  -26.5825   -1.0386   31.2231 C   0  0  0  0  0  0  0  0  0  0  0  0
  -30.0606   -0.7371   29.9024 C   0  0  0  0  0  0  0  0  0  0  0  0
  -30.5524   -0.2769   29.0111 O   0  0  0  0  0  0  0  0  0  0  0  0
  -30.7150   -1.5538   30.7949 O   0  0  0  0  0  0  0  0  0  0  0  0
  -24.3676   -1.0851   30.0761 C   0  0  0  0  0  0  0  0  0  0  0  0
  -23.5803   -0.5889   29.0995 C   0  0  0  0  0  0  0  0  0  0  0  0
  -22.1206   -0.5972   29.2652 C   0  0  0  0  0  0  0  0  0  0  0  0
  -24.1038    0.0653   27.9800 C   0  0  0  0  0  0  0  0  0  0  0  0
  -23.2797    1.0510   27.2941 C   0  0  0  0  0  0  0  0  0  0  0  0
  -21.3243    0.2650   28.4798 C   0  0  0  0  0  0  0  0  0  0  0  0
  -21.8956    1.0550   27.5191 C   0  0  0  0  0  0  0  0  0  0  0  0
  -23.8801    1.8711   26.2404 C   0  0  0  0  0  0  0  0  0  0  0  0
  -25.0957    1.5239   25.7705 C   0  0  0  0  0  0  0  0  0  0  0  0
  -25.6928    0.3461   26.2163 C   0  0  0  0  0  0  0  0  0  0  0  0
  -25.2494   -0.2446   27.3828 C   0  0  0  0  0  0  0  0  0  0  0  0
  2  7  1  0
  7  8  2  0
  7  9  1  0
  4 10  1  0
 10 11  1  0
 11 12  2  0
 12 15  1  0
 15 16  2  0
 16 14  1  0
 13 11  1  0
  1  2  2  0
  2  5  1  0
  5  6  2  0
  6  4  1  0
  4  3  2  0
  3  1  1  0
 13 14  2  0
 14 17  1  0
 17 18  2  0
 18 19  1  0
 19 20  2  0
 20 13  1  0
M  END

$$$$
