No_3712-gen_results/8p0m/2024-11-27-11-27-31/
     RDKit          3D

 16 15  0  0  0  0  0  0  0  0999 V2000
  -27.9505   -0.5786   29.0402 P   0  0  0  0  0  0  0  0  0  0  0  0
  -27.2401    0.0613   28.4283 O   0  0  0  0  0  0  0  0  0  0  0  0
  -27.9314    0.0857   30.5132 O   0  0  0  0  0  0  0  0  0  0  0  0
  -29.2596   -0.9083   29.1458 O   0  0  0  0  0  0  0  0  0  0  0  0
  -27.1280   -1.9276   29.5866 O   0  0  0  0  0  0  0  0  0  0  0  0
  -27.3324    1.2316   28.4192 F   0  0  0  0  0  0  0  0  0  0  0  0
  -25.7919   -1.9122   29.5021 C   0  0  0  0  0  0  0  0  0  0  0  0
  -25.1032   -3.2319   29.4298 C   0  0  0  0  0  0  0  0  0  0  0  0
  -25.7839   -4.2518   29.1079 C   0  0  0  0  0  0  0  0  0  0  0  0
  -27.0907   -4.3404   29.4810 C   0  0  0  0  0  0  0  0  0  0  0  0
  -28.1011   -0.4351   31.4279 F   0  0  0  0  0  0  0  0  0  0  0  0
  -25.0094   -5.5067   28.8543 C   0  0  0  0  0  0  0  0  0  0  0  0
  -23.7672   -3.0118   28.7389 C   0  0  0  0  0  0  0  0  0  0  0  0
  -23.3829   -5.1411   28.3253 Br  0  0  0  0  0  0  0  0  0  0  0  0
  -22.8458   -2.3432   28.7438 O   0  0  0  0  0  0  0  0  0  0  0  0
  -23.9917   -2.5197   27.7387 F   0  0  0  0  0  0  0  0  0  0  0  0
  1  2  1  0
  1  3  1  0
  1  4  2  0
  1  5  1  0
  2  6  1  0
  5  7  1  0
  7  8  1  0
  8  9  2  3
  9 10  1  0
  3 11  1  0
  9 12  1  0
  8 13  1  0
 12 14  1  0
 13 15  2  0
 13 16  1  0
M  END

$$$$
