No_3357-gen_results/8p0m/2024-11-27-11-27-31/
     RDKit          3D

 35 39  0  0  0  0  0  0  0  0999 V2000
  -28.0162   -0.8135   28.8779 C   0  0  0  0  0  0  0  0  0  0  0  0
  -28.4690   -0.7850   29.8287 C   0  0  0  0  0  0  0  0  0  0  0  0
  -27.0871    0.2903   28.6377 C   0  0  0  0  0  0  0  0  0  0  0  0
  -26.2516    0.4114   27.4223 C   0  0  0  0  0  0  0  0  0  0  0  0
  -28.3913    0.1041   30.9805 C   0  0  0  0  0  0  0  0  0  0  0  0
  -27.5332    1.1666   30.7866 C   0  0  0  0  0  0  0  0  0  0  0  0
  -26.8281    1.2557   29.6454 C   0  0  0  0  0  0  0  0  0  0  0  0
  -25.6444    1.6653   27.2216 C   0  0  0  0  0  0  0  0  0  0  0  0
  -24.6322    1.7370   26.2648 C   0  0  0  0  0  0  0  0  0  0  0  0
  -23.8427    2.9889   26.2422 C   0  0  0  0  0  0  0  0  0  0  0  0
  -24.2581    4.0862   27.0217 C   0  0  0  0  0  0  0  0  0  0  0  0
  -25.3586    3.9452   27.8295 C   0  0  0  0  0  0  0  0  0  0  0  0
  -25.9857    2.7341   28.0164 C   0  0  0  0  0  0  0  0  0  0  0  0
  -26.6414    2.5394   29.2262 N   0  0  0  0  0  0  0  0  0  0  0  0
  -26.8481    3.6798   30.0965 C   0  0  0  0  0  0  0  0  0  0  0  0
  -25.9998    3.9790   31.1285 C   0  0  0  0  0  0  0  0  0  0  0  0
  -28.0142    4.4163   29.8529 C   0  0  0  0  0  0  0  0  0  0  0  0
  -26.1270    5.1224   31.8968 C   0  0  0  0  0  0  0  0  0  0  0  0
  -28.2637    5.5059   30.7518 C   0  0  0  0  0  0  0  0  0  0  0  0
  -27.3360    5.8606   31.7347 C   0  0  0  0  0  0  0  0  0  0  0  0
  -26.1757   -0.5258   26.6490 O   0  0  0  0  0  0  0  0  0  0  0  0
  -24.6919    3.2493   31.3331 C   0  0  0  0  0  0  0  0  0  0  0  0
  -24.5914    2.2402   31.4040 O   0  0  0  0  0  0  0  0  0  0  0  0
  -23.8246    3.9905   32.0983 O   0  0  0  0  0  0  0  0  0  0  0  0
  -29.0242    4.1014   28.9110 C   0  0  0  0  0  0  0  0  0  0  0  0
  -29.6595    4.5430   28.2322 C   0  0  0  0  0  0  0  0  0  0  0  0
  -30.6596    3.9905   27.3205 C   0  0  0  0  0  0  0  0  0  0  0  0
  -30.6770    2.6043   27.2460 C   0  0  0  0  0  0  0  0  0  0  0  0
  -29.8361    1.8589   28.0841 C   0  0  0  0  0  0  0  0  0  0  0  0
  -29.0054    2.5974   28.9791 C   0  0  0  0  0  0  0  0  0  0  0  0
  -30.1635    2.4322   30.0169 C   0  0  0  0  0  0  0  0  0  0  0  0
  -30.1261    3.1223   31.1960 C   0  0  0  0  0  0  0  0  0  0  0  0
  -31.1162    2.9444   32.2191 C   0  0  0  0  0  0  0  0  0  0  0  0
  -31.0758    3.6354   33.4389 C   0  0  0  0  0  0  0  0  0  0  0  0
  -32.0234    3.4964   34.4270 C   0  0  0  0  0  0  0  0  0  0  0  0
  3  4  1  0
  4  8  1  0
  7 14  1  0
 13 14  1  0
 14 15  1  0
  4 21  2  0
 16 22  1  0
 22 23  2  0
 22 24  1  0
 17 25  1  0
 30 31  1  0
 31 32  2  3
 32 33  1  0
 33 34  2  3
 34 35  1  0
 25 26  2  0
 26 27  1  0
 27 28  2  0
 28 29  1  0
 29 30  2  0
 30 25  1  0
  1  2  2  0
  2  5  1  0
  5  6  2  0
  6  7  1  0
  7  3  2  0
  3  1  1  0
 15 16  2  0
 16 18  1  0
 18 20  2  0
 20 19  1  0
 19 17  2  0
 17 15  1  0
  8  9  2  0
  9 10  1  0
 10 11  2  0
 11 12  1  0
 12 13  2  0
 13  8  1  0
M  END

$$$$
