No_3961-gen_results/8p0m/2024-11-27-11-27-31/
     RDKit          3D

 18 20  0  0  0  0  0  0  0  0999 V2000
  -28.0162   -0.8135   28.8779 C   0  0  0  0  0  0  0  0  0  0  0  0
  -28.4690   -0.7850   29.8287 C   0  0  0  0  0  0  0  0  0  0  0  0
  -28.1816    0.4277   28.1134 C   0  0  0  0  0  0  0  0  0  0  0  0
  -27.4498    0.6435   26.8500 C   0  0  0  0  0  0  0  0  0  0  0  0
  -26.1815    0.0357   26.7145 C   0  0  0  0  0  0  0  0  0  0  0  0
  -25.7800   -0.9326   27.6938 C   0  0  0  0  0  0  0  0  0  0  0  0
  -26.5568   -1.2134   28.7413 C   0  0  0  0  0  0  0  0  0  0  0  0
  -28.3021   -1.9782   30.6613 N   0  0  0  0  0  0  0  0  0  0  0  0
  -27.1371   -2.6658   30.5759 C   0  0  0  0  0  0  0  0  0  0  0  0
  -26.1686   -2.3577   29.5920 C   0  0  0  0  0  0  0  0  0  0  0  0
  -29.8862   -0.2926   30.1529 C   0  0  0  0  0  0  0  0  0  0  0  0
  -30.7755   -0.2547   29.6910 N   0  0  0  0  0  0  0  0  0  0  0  0
  -31.8699    0.4329   29.9579 C   0  0  0  0  0  0  0  0  0  0  0  0
  -29.7056    0.6038   31.4389 C   0  0  0  0  0  0  0  0  0  0  0  0
  -30.7804    1.3425   31.8385 C   0  0  0  0  0  0  0  0  0  0  0  0
  -31.9127    1.2238   31.0541 C   0  0  0  0  0  0  0  0  0  0  0  0
  -25.0363   -3.1361   29.3903 C   0  0  0  0  0  0  0  0  0  0  0  0
  -24.2388   -3.5892   28.9278 C   0  0  0  0  0  0  0  0  0  0  0  0
  2 11  1  0
 10 17  1  0
 17 18  3  0
  1  2  1  0
  2  8  2  0
  8  9  1  0
  9 10  2  0
 10  7  1  0
 11 12  2  0
 12 13  1  0
 13 16  2  0
 16 15  1  0
 15 14  2  0
 14 11  1  0
  1  3  2  0
  3  4  1  0
  4  5  2  0
  5  6  1  0
  6  7  2  0
  7  1  1  0
M  END

$$$$
