No_3638-gen_results/8p0m/2024-11-27-11-27-31/
     RDKit          3D

 35 38  0  0  0  0  0  0  0  0999 V2000
  -28.0162   -0.8135   28.8779 C   0  0  0  0  0  0  0  0  0  0  0  0
  -27.0636   -0.1189   28.6079 C   0  0  0  0  0  0  0  0  0  0  0  0
  -25.7647   -0.3897   29.0360 C   0  0  0  0  0  0  0  0  0  0  0  0
  -25.5296   -1.5302   29.9014 C   0  0  0  0  0  0  0  0  0  0  0  0
  -26.6577   -2.2915   30.2035 C   0  0  0  0  0  0  0  0  0  0  0  0
  -27.8548   -1.9555   29.7630 C   0  0  0  0  0  0  0  0  0  0  0  0
  -24.5349    0.4128   28.7431 C   0  0  0  0  0  0  0  0  0  0  0  0
  -24.4835    1.2431   27.7398 C   0  0  0  0  0  0  0  0  0  0  0  0
  -23.2788    1.9376   27.4159 C   0  0  0  0  0  0  0  0  0  0  0  0
  -22.0791    1.6509   28.0212 C   0  0  0  0  0  0  0  0  0  0  0  0
  -23.2748    0.1108   29.4386 C   0  0  0  0  0  0  0  0  0  0  0  0
  -22.0811    0.7712   29.0650 C   0  0  0  0  0  0  0  0  0  0  0  0
  -28.9340   -2.7485   30.1431 N   0  0  0  0  0  0  0  0  0  0  0  0
  -30.1202   -2.3103   30.4332 C   0  0  0  0  0  0  0  0  0  0  0  0
  -31.1319   -3.3046   30.7411 C   0  0  0  0  0  0  0  0  0  0  0  0
  -28.8850   -4.1205   29.8089 C   0  0  0  0  0  0  0  0  0  0  0  0
  -29.7465   -5.0789   30.2299 N   0  0  0  0  0  0  0  0  0  0  0  0
  -30.9123   -4.6162   30.6346 C   0  0  0  0  0  0  0  0  0  0  0  0
  -32.4637   -2.7868   31.2435 C   0  0  0  0  0  0  0  0  0  0  0  0
  -32.5037   -1.4797   31.5905 C   0  0  0  0  0  0  0  0  0  0  0  0
  -31.4814   -0.5763   31.2328 C   0  0  0  0  0  0  0  0  0  0  0  0
  -30.3064   -0.9779   30.7848 C   0  0  0  0  0  0  0  0  0  0  0  0
  -31.7873   -5.4866   30.8400 O   0  0  0  0  0  0  0  0  0  0  0  0
  -31.6624    0.9094   31.5896 C   0  0  0  0  0  0  0  0  0  0  0  0
  -32.4413    1.4162   32.0383 O   0  0  0  0  0  0  0  0  0  0  0  0
  -30.4812    1.6729   31.1537 N   0  0  0  0  0  0  0  0  0  0  0  0
  -30.4535    3.0723   31.3198 C   0  0  0  0  0  0  0  0  0  0  0  0
  -29.4664    3.6095   30.6736 C   0  0  0  0  0  0  0  0  0  0  0  0
  -29.0817    4.6497   30.4221 C   0  0  0  0  0  0  0  0  0  0  0  0
  -28.5114    5.3801   29.9569 C   0  0  0  0  0  0  0  0  0  0  0  0
  -27.8139    6.4958   29.4030 C   0  0  0  0  0  0  0  0  0  0  0  0
  -27.8167    7.7873   29.7639 C   0  0  0  0  0  0  0  0  0  0  0  0
  -28.3257    8.2633   30.8950 C   0  0  0  0  0  0  0  0  0  0  0  0
  -28.7179    7.5426   31.8964 C   0  0  0  0  0  0  0  0  0  0  0  0
  -29.1411    8.1624   33.1370 C   0  0  0  0  0  0  0  0  0  0  0  0
  3  7  1  0
  6 13  1  0
 13 14  1  0
 13 16  1  0
 15 18  1  0
 17 18  1  0
 18 23  2  0
 21 24  1  0
 24 25  2  0
 24 26  1  0
 26 27  1  0
 27 28  2  3
 28 29  1  0
 29 30  2  3
 30 31  1  0
 31 32  2  3
 32 33  1  0
 33 34  1  0
 34 35  1  0
 17 16  1  0
  7  8  2  0
  8  9  1  0
  9 10  2  0
 10 12  1  0
 12 11  2  0
 11  7  1  0
  1  2  2  0
  2  3  1  0
  3  4  2  0
  4  5  1  0
  5  6  2  0
  6  1  1  0
 14 22  2  0
 22 21  1  0
 21 20  2  0
 20 19  1  0
 19 15  2  0
 15 14  1  0
M  END

$$$$
