No_3314-gen_results/8p0m/2024-11-27-11-27-31/
     RDKit          3D

 35 38  0  0  0  0  0  0  0  0999 V2000
  -28.0162   -0.8135   28.8779 C   0  0  0  0  0  0  0  0  0  0  0  0
  -27.0636   -0.1189   28.6079 C   0  0  0  0  0  0  0  0  0  0  0  0
  -25.7923   -0.4302   29.0761 C   0  0  0  0  0  0  0  0  0  0  0  0
  -24.5456    0.3494   28.8225 C   0  0  0  0  0  0  0  0  0  0  0  0
  -24.6586    1.4196   27.8878 C   0  0  0  0  0  0  0  0  0  0  0  0
  -25.9471    1.6811   27.3792 C   0  0  0  0  0  0  0  0  0  0  0  0
  -27.0439    0.9739   27.6871 C   0  0  0  0  0  0  0  0  0  0  0  0
  -28.6597   -0.4600   30.2006 C   0  0  0  0  0  0  0  0  0  0  0  0
  -28.5440    0.4585   30.7537 N   0  0  0  0  0  0  0  0  0  0  0  0
  -29.0604    0.6640   32.0730 C   0  0  0  0  0  0  0  0  0  0  0  0
  -29.6324   -1.3667   30.6102 O   0  0  0  0  0  0  0  0  0  0  0  0
  -23.4778    2.1823   27.6088 C   0  0  0  0  0  0  0  0  0  0  0  0
  -22.5052    1.8014   27.1777 N   0  0  0  0  0  0  0  0  0  0  0  0
  -23.4805    3.4831   27.9863 N   0  0  0  0  0  0  0  0  0  0  0  0
  -28.5227    1.4005   26.9647 Cl  0  0  0  0  0  0  0  0  0  0  0  0
  -25.4903   -1.5039   30.0567 C   0  0  0  0  0  0  0  0  0  0  0  0
  -25.4480   -2.6323   29.7352 N   0  0  0  0  0  0  0  0  0  0  0  0
  -24.3658   -3.2239   29.1542 C   0  0  0  0  0  0  0  0  0  0  0  0
  -26.5601   -3.6672   29.8296 C   0  0  0  0  0  0  0  0  0  0  0  0
  -24.4950   -4.5481   28.7821 N   0  0  0  0  0  0  0  0  0  0  0  0
  -25.7761   -4.8502   29.3084 C   0  0  0  0  0  0  0  0  0  0  0  0
  -25.4422   -1.1939   31.3640 O   0  0  0  0  0  0  0  0  0  0  0  0
  -28.5973    1.8673   32.7985 C   0  0  0  0  0  0  0  0  0  0  0  0
  -27.9119    2.6002   32.2529 C   0  0  0  0  0  0  0  0  0  0  0  0
  -27.3141    2.5263   30.9243 C   0  0  0  0  0  0  0  0  0  0  0  0
  -27.6469    1.4464   30.3317 C   0  0  0  0  0  0  0  0  0  0  0  0
  -28.3384    2.1217   29.4694 C   0  0  0  0  0  0  0  0  0  0  0  0
  -28.4916    3.5099   29.1837 C   0  0  0  0  0  0  0  0  0  0  0  0
  -29.7600    1.7002   29.2206 C   0  0  0  0  0  0  0  0  0  0  0  0
  -27.4332    4.4387   29.3111 C   0  0  0  0  0  0  0  0  0  0  0  0
  -26.1512    3.3779   30.7218 C   0  0  0  0  0  0  0  0  0  0  0  0
  -26.4144    4.5247   30.1200 C   0  0  0  0  0  0  0  0  0  0  0  0
  -26.3726    2.4209   31.7055 O   0  0  0  0  0  0  0  0  0  0  0  0
  -24.7885    2.7611   30.4141 C   0  0  0  0  0  0  0  0  0  0  0  0
  -26.4396    1.6510   32.8573 C   0  0  0  0  0  0  0  0  0  0  0  0
  1  2  1  0
  1  8  1  0
  8  9  1  0
  9 10  1  0
  8 11  2  0
  5 12  1  0
 12 13  2  0
 12 14  1  0
  7 15  1  0
  3 16  1  0
 16 17  1  0
 17 18  1  0
 17 19  1  0
 18 20  1  0
 19 21  2  0
 20 21  2  0
 16 22  2  0
 10 23  1  0
 24 25  1  0
  9 26  1  0
 25 26  1  0
 26 27  1  0
 27 28  2  0
 27 29  1  0
 28 30  1  0
 25 31  1  0
 30 32  1  0
 31 32  1  0
 25 33  1  0
 31 34  1  0
 33 35  1  0
 23 24  1  0
  2  3  1  0
  3  4  2  0
  4  5  1  0
  5  6  2  0
  6  7  1  0
  7  2  2  0
M  END

$$$$
