No_3058-gen_results/8p0m/2024-11-27-11-27-31/
     RDKit          3D

 17 18  0  0  0  0  0  0  0  0999 V2000
  -28.0162   -0.8135   28.8779 C   0  0  0  0  0  0  0  0  0  0  0  0
  -28.4690   -0.7850   29.8287 C   0  0  0  0  0  0  0  0  0  0  0  0
  -27.0871    0.2903   28.6377 C   0  0  0  0  0  0  0  0  0  0  0  0
  -26.2516    0.4114   27.4223 C   0  0  0  0  0  0  0  0  0  0  0  0
  -28.3913    0.1041   30.9805 C   0  0  0  0  0  0  0  0  0  0  0  0
  -27.5332    1.1666   30.7866 C   0  0  0  0  0  0  0  0  0  0  0  0
  -26.8281    1.2557   29.6454 C   0  0  0  0  0  0  0  0  0  0  0  0
  -26.2892   -0.3208   26.7008 F   0  0  0  0  0  0  0  0  0  0  0  0
  -24.9065    0.6301   27.8498 F   0  0  0  0  0  0  0  0  0  0  0  0
  -26.5256    1.7002   26.8048 F   0  0  0  0  0  0  0  0  0  0  0  0
  -29.3577   -1.9002   30.1532 F   0  0  0  0  0  0  0  0  0  0  0  0
  -27.3359    2.2107   31.8505 C   0  0  0  0  0  0  0  0  0  0  0  0
  -27.2633    3.4387   31.6019 C   0  0  0  0  0  0  0  0  0  0  0  0
  -27.0283    4.3852   32.0010 C   0  0  0  0  0  0  0  0  0  0  0  0
  -26.7120    4.3804   33.4938 C   0  0  0  0  0  0  0  0  0  0  0  0
  -26.7268    3.0915   34.0505 C   0  0  0  0  0  0  0  0  0  0  0  0
  -26.9838    1.9604   33.2225 C   0  0  0  0  0  0  0  0  0  0  0  0
  3  4  1  0
  4  8  1  0
  4  9  1  0
  4 10  1  0
  2 11  1  0
  6 12  1  0
 12 13  2  0
 13 14  1  0
 14 15  2  0
 15 16  1  0
 16 17  2  0
 17 12  1  0
  1  2  2  0
  2  5  1  0
  5  6  2  0
  6  7  1  0
  7  3  2  0
  3  1  1  0
M  END

$$$$
