No_3873-gen_results/8p0m/2024-11-27-11-27-31/
     RDKit          3D

 11 11  0  0  0  0  0  0  0  0999 V2000
  -28.0727   -1.2542   28.5316 F   0  0  0  0  0  0  0  0  0  0  0  0
  -27.3591   -0.3792   28.7224 C   0  0  0  0  0  0  0  0  0  0  0  0
  -27.7014    0.7608   29.1249 C   0  0  0  0  0  0  0  0  0  0  0  0
  -25.8844   -0.6918   28.4374 C   0  0  0  0  0  0  0  0  0  0  0  0
  -24.9212    0.3779   28.6013 C   0  0  0  0  0  0  0  0  0  0  0  0
  -26.6914    1.8696   29.2705 C   0  0  0  0  0  0  0  0  0  0  0  0
  -25.3451    1.6252   29.0013 C   0  0  0  0  0  0  0  0  0  0  0  0
  -23.5068    0.1613   28.3617 C   0  0  0  0  0  0  0  0  0  0  0  0
  -22.9455    0.8253   27.5414 F   0  0  0  0  0  0  0  0  0  0  0  0
  -22.7750    0.2853   29.5840 F   0  0  0  0  0  0  0  0  0  0  0  0
  -23.2337   -1.1606   28.1178 F   0  0  0  0  0  0  0  0  0  0  0  0
  1  2  1  0
  5  8  1  0
  8  9  1  0
  8 10  1  0
  8 11  1  0
  2  3  2  0
  3  6  1  0
  6  7  2  0
  7  5  1  0
  5  4  2  0
  4  2  1  0
M  END

$$$$
