No_3485-gen_results/8p0m/2024-11-27-11-27-31/
     RDKit          3D

 18 19  0  0  0  0  0  0  0  0999 V2000
  -28.0162   -0.8135   28.8779 C   0  0  0  0  0  0  0  0  0  0  0  0
  -28.4690   -0.7850   29.8287 C   0  0  0  0  0  0  0  0  0  0  0  0
  -26.5042   -0.7777   28.8766 C   0  0  0  0  0  0  0  0  0  0  0  0
  -25.8103   -0.8531   30.1028 C   0  0  0  0  0  0  0  0  0  0  0  0
  -27.9906   -0.8916   31.2257 C   0  0  0  0  0  0  0  0  0  0  0  0
  -26.6042   -0.8676   31.2652 C   0  0  0  0  0  0  0  0  0  0  0  0
  -30.0417   -0.7687   29.6526 C   0  0  0  0  0  0  0  0  0  0  0  0
  -30.8000   -1.5937   30.1656 N   0  0  0  0  0  0  0  0  0  0  0  0
  -30.4139   -0.4571   28.2490 C   0  0  0  0  0  0  0  0  0  0  0  0
  -29.8226    0.3710   27.5990 O   0  0  0  0  0  0  0  0  0  0  0  0
  -31.5608   -1.0054   27.8062 N   0  0  0  0  0  0  0  0  0  0  0  0
  -32.0715   -0.7215   26.5233 C   0  0  0  0  0  0  0  0  0  0  0  0
  -30.7358   -1.7353   31.5853 C   0  0  0  0  0  0  0  0  0  0  0  0
  -31.3101   -2.3920   32.2573 C   0  0  0  0  0  0  0  0  0  0  0  0
  -31.2666   -2.4392   33.6889 C   0  0  0  0  0  0  0  0  0  0  0  0
  -30.3617   -1.6283   34.3635 C   0  0  0  0  0  0  0  0  0  0  0  0
  -29.5960   -0.7873   33.5797 C   0  0  0  0  0  0  0  0  0  0  0  0
  -29.7343   -0.7587   32.2586 C   0  0  0  0  0  0  0  0  0  0  0  0
  2  7  1  0
  7  8  1  0
  7  9  1  0
  9 10  2  0
  9 11  1  0
 11 12  1  0
  8 13  1  0
 13 14  2  0
 14 15  1  0
 15 16  2  0
 16 17  1  0
 17 18  2  0
 18 13  1  0
  1  2  2  0
  2  5  1  0
  5  6  2  0
  6  4  1  0
  4  3  2  0
  3  1  1  0
M  END

$$$$
