No_3140-gen_results/8p0m/2024-11-27-11-27-31/
     RDKit          3D

 15 15  0  0  0  0  0  0  0  0999 V2000
  -28.0162   -0.8135   28.8779 C   0  0  0  0  0  0  0  0  0  0  0  0
  -27.0636   -0.1189   28.6079 C   0  0  0  0  0  0  0  0  0  0  0  0
  -26.9287    1.1713   29.0083 C   0  0  0  0  0  0  0  0  0  0  0  0
  -25.7702    2.0341   28.6884 C   0  0  0  0  0  0  0  0  0  0  0  0
  -24.7141    1.4431   27.9188 C   0  0  0  0  0  0  0  0  0  0  0  0
  -24.8590    0.0783   27.5836 C   0  0  0  0  0  0  0  0  0  0  0  0
  -25.9647   -0.6606   27.9164 C   0  0  0  0  0  0  0  0  0  0  0  0
  -29.0591   -0.5087   28.2818 F   0  0  0  0  0  0  0  0  0  0  0  0
  -28.0313   -1.9475   30.0893 Cl  0  0  0  0  0  0  0  0  0  0  0  0
  -23.5401    2.1445   27.5632 C   0  0  0  0  0  0  0  0  0  0  0  0
  -22.3905    1.6745   27.2675 N   0  0  0  0  0  0  0  0  0  0  0  0
  -23.7055    3.4280   27.3886 O   0  0  0  0  0  0  0  0  0  0  0  0
  -21.7976    0.5703   27.9891 C   0  0  0  0  0  0  0  0  0  0  0  0
  -20.4553    0.7468   28.4964 C   0  0  0  0  0  0  0  0  0  0  0  0
  -19.9355    1.7974   28.3051 N   0  0  0  0  0  0  0  0  0  0  0  0
  1  2  1  0
  1  8  1  0
  1  9  1  0
  5 10  1  0
 10 11  1  0
 10 12  2  0
 11 13  1  0
 13 14  2  3
 14 15  1  0
  2  3  2  0
  3  4  1  0
  4  5  2  0
  5  6  1  0
  6  7  2  0
  7  2  1  0
M  END

$$$$
