No_3457-gen_results/8p0m/2024-11-27-11-27-31/
     RDKit          3D

 34 40  0  0  0  0  0  0  0  0999 V2000
  -28.0162   -0.8135   28.8779 C   0  0  0  0  0  0  0  0  0  0  0  0
  -27.0636   -0.1189   28.6079 C   0  0  0  0  0  0  0  0  0  0  0  0
  -26.9716    0.7139   27.5060 C   0  0  0  0  0  0  0  0  0  0  0  0
  -28.1053    0.7744   26.6421 C   0  0  0  0  0  0  0  0  0  0  0  0
  -29.2041    0.1179   27.0477 C   0  0  0  0  0  0  0  0  0  0  0  0
  -29.2127   -0.6088   28.1281 C   0  0  0  0  0  0  0  0  0  0  0  0
  -25.7106    1.4518   27.1380 C   0  0  0  0  0  0  0  0  0  0  0  0
  -24.6052    0.9253   27.6902 C   0  0  0  0  0  0  0  0  0  0  0  0
  -23.3376    1.6509   27.5494 C   0  0  0  0  0  0  0  0  0  0  0  0
  -22.1760    1.2277   28.2868 C   0  0  0  0  0  0  0  0  0  0  0  0
  -22.1814    0.0854   29.0261 C   0  0  0  0  0  0  0  0  0  0  0  0
  -23.3607   -0.6935   29.1008 C   0  0  0  0  0  0  0  0  0  0  0  0
  -24.5306   -0.2411   28.4874 C   0  0  0  0  0  0  0  0  0  0  0  0
  -25.7159   -0.6069   29.1263 C   0  0  0  0  0  0  0  0  0  0  0  0
  -25.7376   -1.5573   29.9905 O   0  0  0  0  0  0  0  0  0  0  0  0
  -25.7534    2.4979   26.1763 C   0  0  0  0  0  0  0  0  0  0  0  0
  -30.3432    0.3150   26.3350 O   0  0  0  0  0  0  0  0  0  0  0  0
  -30.6144    0.8826   25.5190 C   0  0  0  0  0  0  0  0  0  0  0  0
  -28.1702    1.6535   25.5022 C   0  0  0  0  0  0  0  0  0  0  0  0
  -29.4939    1.7390   24.8538 C   0  0  0  0  0  0  0  0  0  0  0  0
  -27.0354    2.5516   25.2389 C   0  0  0  0  0  0  0  0  0  0  0  0
  -31.7965    0.9389   24.6811 C   0  0  0  0  0  0  0  0  0  0  0  0
  -32.6502   -0.1139   24.9505 C   0  0  0  0  0  0  0  0  0  0  0  0
  -33.1676   -0.1397   26.2430 C   0  0  0  0  0  0  0  0  0  0  0  0
  -33.4763   -1.1661   26.7947 N   0  0  0  0  0  0  0  0  0  0  0  0
  -33.1031   -2.2778   26.5582 C   0  0  0  0  0  0  0  0  0  0  0  0
  -32.5919   -2.5235   25.1987 C   0  0  0  0  0  0  0  0  0  0  0  0
  -31.8205   -1.4343   24.7945 C   0  0  0  0  0  0  0  0  0  0  0  0
  -34.3229   -1.0932   28.1441 C   0  0  0  0  0  0  0  0  0  0  0  0
  -34.7212   -1.8370   28.7407 C   0  0  0  0  0  0  0  0  0  0  0  0
  -34.5066    0.3601   28.6044 C   0  0  0  0  0  0  0  0  0  0  0  0
  -35.2568    0.6044   29.7226 C   0  0  0  0  0  0  0  0  0  0  0  0
  -35.5192   -1.6956   29.9890 C   0  0  0  0  0  0  0  0  0  0  0  0
  -35.7538   -0.4219   30.4268 C   0  0  0  0  0  0  0  0  0  0  0  0
  7  8  1  0
  2 14  1  0
 13 14  1  0
 14 15  2  0
  5 17  1  0
 17 18  1  0
 18 20  2  0
 19 20  1  0
 18 22  1  0
 22 23  1  0
 23 24  1  0
 24 25  1  0
 25 26  1  0
 23 28  1  0
 27 28  1  0
 25 29  1  0
 27 26  1  0
  1  2  2  0
  2  3  1  0
  4  5  1  0
  5  6  2  0
  6  1  1  0
  3  4  2  0
  4 19  1  0
 19 21  2  0
 21 16  1  0
 16  7  2  0
  7  3  1  0
 29 30  2  0
 30 33  1  0
 33 34  2  0
 34 32  1  0
 32 31  2  0
 31 29  1  0
  8  9  2  0
  9 10  1  0
 10 11  2  0
 11 12  1  0
 12 13  2  0
 13  8  1  0
M  END

$$$$
