No_3723-gen_results/8p0m/2024-11-27-11-27-31/
     RDKit          3D

 35 38  0  0  0  0  0  0  0  0999 V2000
  -28.0162   -0.8135   28.8779 C   0  0  0  0  0  0  0  0  0  0  0  0
  -28.4690   -0.7850   29.8287 C   0  0  0  0  0  0  0  0  0  0  0  0
  -26.5455   -0.8762   28.8500 C   0  0  0  0  0  0  0  0  0  0  0  0
  -25.8041   -1.0324   30.0571 C   0  0  0  0  0  0  0  0  0  0  0  0
  -26.5373   -1.0386   31.2171 C   0  0  0  0  0  0  0  0  0  0  0  0
  -27.8843   -0.9532   31.1862 C   0  0  0  0  0  0  0  0  0  0  0  0
  -24.1525   -1.2743   30.1901 Cl  0  0  0  0  0  0  0  0  0  0  0  0
  -30.0647   -0.6710   29.9226 C   0  0  0  0  0  0  0  0  0  0  0  0
  -30.6154    0.1624   30.7879 O   0  0  0  0  0  0  0  0  0  0  0  0
  -30.7153   -1.3039   29.1071 O   0  0  0  0  0  0  0  0  0  0  0  0
  -25.7313   -0.8623   27.7081 O   0  0  0  0  0  0  0  0  0  0  0  0
  -25.3950    0.4354   27.2256 C   0  0  0  0  0  0  0  0  0  0  0  0
  -26.0279    1.4813   27.3752 C   0  0  0  0  0  0  0  0  0  0  0  0
  -25.6501    2.6286   26.7941 C   0  0  0  0  0  0  0  0  0  0  0  0
  -24.4033    2.6923   26.0595 C   0  0  0  0  0  0  0  0  0  0  0  0
  -23.6494    1.5706   25.9341 C   0  0  0  0  0  0  0  0  0  0  0  0
  -24.0755    0.4163   26.5465 C   0  0  0  0  0  0  0  0  0  0  0  0
  -26.3968    3.9500   26.9890 C   0  0  0  0  0  0  0  0  0  0  0  0
  -25.8425    4.9756   27.5310 N   0  0  0  0  0  0  0  0  0  0  0  0
  -26.0663    5.4014   28.7770 C   0  0  0  0  0  0  0  0  0  0  0  0
  -26.3754    4.5563   29.7195 C   0  0  0  0  0  0  0  0  0  0  0  0
  -25.9798    4.6009   30.7943 O   0  0  0  0  0  0  0  0  0  0  0  0
  -27.2271    3.6269   29.3759 O   0  0  0  0  0  0  0  0  0  0  0  0
  -25.7718    6.6856   29.0527 O   0  0  0  0  0  0  0  0  0  0  0  0
  -25.1838    5.9698   26.5641 C   0  0  0  0  0  0  0  0  0  0  0  0
  -28.2799    3.3391   30.3966 C   0  0  0  0  0  0  0  0  0  0  0  0
  -29.5482    3.2206   29.7335 C   0  0  0  0  0  0  0  0  0  0  0  0
  -29.6769    3.1203   28.4086 C   0  0  0  0  0  0  0  0  0  0  0  0
  -30.9320    2.6426   27.8689 C   0  0  0  0  0  0  0  0  0  0  0  0
  -30.9488    2.2528   26.5341 C   0  0  0  0  0  0  0  0  0  0  0  0
  -29.8313    2.3596   25.7451 C   0  0  0  0  0  0  0  0  0  0  0  0
  -28.6863    2.8807   26.2302 C   0  0  0  0  0  0  0  0  0  0  0  0
  -27.6550    4.0176   26.4229 C   0  0  0  0  0  0  0  0  0  0  0  0
  -29.1116    2.5294   27.7172 O   0  0  0  0  0  0  0  0  0  0  0  0
  -31.5496    1.5136   28.7617 C   0  0  0  0  0  0  0  0  0  0  0  0
  4  7  1  0
  2  8  1  0
  8  9  2  0
  8 10  1  0
  3 11  1  0
 11 12  1  0
 14 18  1  0
 18 19  1  0
 19 20  1  0
 20 21  1  0
 21 22  2  0
 21 23  1  0
 20 24  2  0
 19 25  1  0
 23 26  1  0
 26 27  1  0
 27 28  1  0
 28 29  2  0
 29 30  1  0
 30 31  2  0
 31 32  1  0
 18 33  1  0
 32 33  1  0
 28 34  1  0
 32 34  1  0
 29 35  1  0
 12 13  2  0
 13 14  1  0
 14 15  2  0
 15 16  1  0
 16 17  2  0
 17 12  1  0
  1  2  2  0
  2  6  1  0
  6  5  2  0
  5  4  1  0
  4  3  2  0
  3  1  1  0
M  END

$$$$
