No_3267-gen_results/8p0m/2024-11-27-11-27-31/
     RDKit          3D

 19 20  0  0  0  0  0  0  0  0999 V2000
  -28.0162   -0.8135   28.8779 C   0  0  0  0  0  0  0  0  0  0  0  0
  -27.0636   -0.1190   28.6079 C   0  0  0  0  0  0  0  0  0  0  0  0
  -27.0010    0.6913   27.4910 C   0  0  0  0  0  0  0  0  0  0  0  0
  -28.1373    0.7363   26.6350 C   0  0  0  0  0  0  0  0  0  0  0  0
  -29.2360    0.0765   27.0690 C   0  0  0  0  0  0  0  0  0  0  0  0
  -29.2177   -0.6429   28.1747 C   0  0  0  0  0  0  0  0  0  0  0  0
  -28.0030   -1.6604   30.1266 C   0  0  0  0  0  0  0  0  0  0  0  0
  -28.6910   -1.7921   30.8886 O   0  0  0  0  0  0  0  0  0  0  0  0
  -26.9877   -2.6919   29.9394 O   0  0  0  0  0  0  0  0  0  0  0  0
  -30.4307    0.1691   26.1973 C   0  0  0  0  0  0  0  0  0  0  0  0
  -31.4272   -0.4333   26.4794 N   0  0  0  0  0  0  0  0  0  0  0  0
  -30.4208    0.8244   25.1047 O   0  0  0  0  0  0  0  0  0  0  0  0
  -32.6640   -0.5111   25.6608 C   0  0  0  0  0  0  0  0  0  0  0  0
  -25.7271    1.4113   27.0650 C   0  0  0  0  0  0  0  0  0  0  0  0
  -24.5851    0.9569   27.6130 C   0  0  0  0  0  0  0  0  0  0  0  0
  -23.3904    1.7409   27.5242 C   0  0  0  0  0  0  0  0  0  0  0  0
  -23.4009    2.6874   26.5140 C   0  0  0  0  0  0  0  0  0  0  0  0
  -24.5927    3.1492   25.9466 C   0  0  0  0  0  0  0  0  0  0  0  0
  -25.7906    2.4958   26.2223 C   0  0  0  0  0  0  0  0  0  0  0  0
  1  7  1  0
  7  8  2  0
  7  9  1  0
  5 10  1  0
 10 11  1  0
 10 12  2  0
 11 13  1  0
  3 14  1  0
  1  2  2  0
  2  3  1  0
  3  4  2  0
  4  5  1  0
  5  6  2  0
  6  1  1  0
 14 15  2  0
 15 16  1  0
 16 17  2  0
 17 18  1  0
 18 19  2  0
 19 14  1  0
M  END

$$$$
