No_3025-gen_results/8p0m/2024-11-27-11-27-31/
     RDKit          3D

 24 26  0  0  0  0  0  0  0  0999 V2000
  -28.0162   -0.8135   28.8779 C   0  0  0  0  0  0  0  0  0  0  0  0
  -27.0636   -0.1190   28.6079 C   0  0  0  0  0  0  0  0  0  0  0  0
  -26.9287    1.1713   29.0083 C   0  0  0  0  0  0  0  0  0  0  0  0
  -27.9560    1.7411   29.7840 C   0  0  0  0  0  0  0  0  0  0  0  0
  -29.0569   -0.3271   29.7466 C   0  0  0  0  0  0  0  0  0  0  0  0
  -28.9828    0.9722   30.1516 C   0  0  0  0  0  0  0  0  0  0  0  0
  -25.8907   -0.6263   27.7857 C   0  0  0  0  0  0  0  0  0  0  0  0
  -25.4633    0.1123   26.6815 C   0  0  0  0  0  0  0  0  0  0  0  0
  -25.0310   -1.6701   28.2406 C   0  0  0  0  0  0  0  0  0  0  0  0
  -25.1141   -2.6221   28.9382 C   0  0  0  0  0  0  0  0  0  0  0  0
  -24.0864   -3.5904   29.1847 C   0  0  0  0  0  0  0  0  0  0  0  0
  -26.2120    0.0958   25.5192 C   0  0  0  0  0  0  0  0  0  0  0  0
  -24.3905    1.0424   26.7256 C   0  0  0  0  0  0  0  0  0  0  0  0
  -23.4482    1.1879   27.8122 C   0  0  0  0  0  0  0  0  0  0  0  0
  -22.3100    1.9203   27.6965 C   0  0  0  0  0  0  0  0  0  0  0  0
  -22.2063    2.5274   26.4872 N   0  0  0  0  0  0  0  0  0  0  0  0
  -23.7240    1.8463   25.6887 C   0  0  0  0  0  0  0  0  0  0  0  0
  -26.3826   -3.0512   29.6279 C   0  0  0  0  0  0  0  0  0  0  0  0
  -26.7564   -2.4398   30.7025 C   0  0  0  0  0  0  0  0  0  0  0  0
  -26.9735   -4.3021   29.3079 C   0  0  0  0  0  0  0  0  0  0  0  0
  -22.9083   -3.3200   28.6358 O   0  0  0  0  0  0  0  0  0  0  0  0
  -28.0401   -4.7781   30.0990 C   0  0  0  0  0  0  0  0  0  0  0  0
  -27.9566   -2.7860   31.4976 C   0  0  0  0  0  0  0  0  0  0  0  0
  -28.5595   -4.0018   31.1340 C   0  0  0  0  0  0  0  0  0  0  0  0
  2  7  1  0
  7  8  1  0
  7  9  1  0
  9 10  2  3
 10 11  1  0
  8 12  1  0
  8 13  1  0
 13 14  1  0
 14 15  2  0
 15 16  1  0
 13 17  1  0
 16 17  2  0
 10 18  1  0
 11 21  1  0
 18 19  2  0
 19 23  1  0
 23 24  2  0
 24 22  1  0
 22 20  2  0
 20 18  1  0
  1  2  2  0
  2  3  1  0
  3  4  2  0
  4  6  1  0
  6  5  2  0
  5  1  1  0
M  END

$$$$
