No_3581-gen_results/8p0m/2024-11-27-11-27-31/
     RDKit          3D

  8  8  0  0  0  0  0  0  0  0999 V2000
  -28.0162   -0.8135   28.8779 C   0  0  0  0  0  0  0  0  0  0  0  0
  -27.0636   -0.1189   28.6079 C   0  0  0  0  0  0  0  0  0  0  0  0
  -27.0010    0.6913   27.4910 C   0  0  0  0  0  0  0  0  0  0  0  0
  -28.1373    0.7363   26.6350 C   0  0  0  0  0  0  0  0  0  0  0  0
  -29.2360    0.0765   27.0690 C   0  0  0  0  0  0  0  0  0  0  0  0
  -30.3815    0.2048   26.2662 C   0  0  0  0  0  0  0  0  0  0  0  0
  -29.1803   -0.6422   28.1830 C   0  0  0  0  0  0  0  0  0  0  0  0
  -30.9641    1.1697   26.0469 N   0  0  0  0  0  0  0  0  0  0  0  0
  5  6  1  0
  6  8  2  0
  1  2  2  0
  2  3  1  0
  3  4  2  0
  4  5  1  0
  5  7  2  0
  7  1  1  0
M  END

$$$$
