No_3866-gen_results/8p0m/2024-11-27-11-27-31/
     RDKit          3D

 18 19  0  0  0  0  0  0  0  0999 V2000
  -28.0162   -0.8135   28.8779 C   0  0  0  0  0  0  0  0  0  0  0  0
  -28.4690   -0.7850   29.8287 C   0  0  0  0  0  0  0  0  0  0  0  0
  -28.1816    0.4277   28.1134 C   0  0  0  0  0  0  0  0  0  0  0  0
  -27.4498    0.6435   26.8500 C   0  0  0  0  0  0  0  0  0  0  0  0
  -26.1815    0.0357   26.7145 C   0  0  0  0  0  0  0  0  0  0  0  0
  -25.7800   -0.9326   27.6938 C   0  0  0  0  0  0  0  0  0  0  0  0
  -26.5568   -1.2134   28.7413 C   0  0  0  0  0  0  0  0  0  0  0  0
  -29.6470   -0.2239   30.2207 C   0  0  0  0  0  0  0  0  0  0  0  0
  -30.0496    0.8403   29.3478 C   0  0  0  0  0  0  0  0  0  0  0  0
  -29.3564    1.1395   28.2109 C   0  0  0  0  0  0  0  0  0  0  0  0
  -25.9897   -2.3068   29.6290 C   0  0  0  0  0  0  0  0  0  0  0  0
  -25.4516   -3.0717   29.0652 F   0  0  0  0  0  0  0  0  0  0  0  0
  -25.2717   -1.6952   30.6747 F   0  0  0  0  0  0  0  0  0  0  0  0
  -27.0666   -2.9219   30.3760 F   0  0  0  0  0  0  0  0  0  0  0  0
  -31.2552    1.5270   29.6499 O   0  0  0  0  0  0  0  0  0  0  0  0
  -31.3212    2.2192   30.7541 C   0  0  0  0  0  0  0  0  0  0  0  0
  -30.5537    2.7017   31.3922 C   0  0  0  0  0  0  0  0  0  0  0  0
  -30.7334    3.4820   32.6120 C   0  0  0  0  0  0  0  0  0  0  0  0
  7 11  1  0
 11 12  1  0
 11 13  1  0
 11 14  1  0
  9 15  1  0
 15 16  1  0
 16 17  2  3
 17 18  1  0
  1  2  2  0
  2  8  1  0
  8  9  2  0
  9 10  1  0
 10  3  2  0
  1  3  1  0
  3  4  1  0
  4  5  2  0
  5  6  1  0
  6  7  2  0
  7  1  1  0
M  END

$$$$
