No_3857-gen_results/8p0m/2024-11-27-11-27-31/
     RDKit          3D

  5  4  0  0  0  0  0  0  0  0999 V2000
  -28.0162   -0.8135   28.8779 C   0  0  0  0  0  0  0  0  0  0  0  0
  -28.4690   -0.7850   29.8287 C   0  0  0  0  0  0  0  0  0  0  0  0
  -27.5417    0.3084   28.6516 F   0  0  0  0  0  0  0  0  0  0  0  0
  -28.8413    0.1310   30.8161 C   0  0  0  0  0  0  0  0  0  0  0  0
  -28.2529    1.4083   30.4125 C   0  0  0  0  0  0  0  0  0  0  0  0
  1  2  2  3
  1  3  1  0
  2  4  1  0
  4  5  2  0
M  END

$$$$
