No_3849-gen_results/8p0m/2024-11-27-11-27-31/
     RDKit          3D

 35 38  0  0  0  0  0  0  0  0999 V2000
  -28.0162   -0.8135   28.8779 C   0  0  0  0  0  0  0  0  0  0  0  0
  -27.0636   -0.1189   28.6079 C   0  0  0  0  0  0  0  0  0  0  0  0
  -25.7923   -0.4302   29.0761 C   0  0  0  0  0  0  0  0  0  0  0  0
  -25.5756   -1.5654   29.9363 C   0  0  0  0  0  0  0  0  0  0  0  0
  -26.7354   -2.3004   30.2173 C   0  0  0  0  0  0  0  0  0  0  0  0
  -27.9184   -1.9537   29.7629 C   0  0  0  0  0  0  0  0  0  0  0  0
  -29.0001   -2.7012   30.1151 O   0  0  0  0  0  0  0  0  0  0  0  0
  -24.5290    0.3490   28.7998 C   0  0  0  0  0  0  0  0  0  0  0  0
  -24.1172    1.3368   29.6649 C   0  0  0  0  0  0  0  0  0  0  0  0
  -23.4035    2.1416   29.4871 C   0  0  0  0  0  0  0  0  0  0  0  0
  -22.5641    2.1647   28.2389 C   0  0  0  0  0  0  0  0  0  0  0  0
  -22.9405    1.2319   27.2747 C   0  0  0  0  0  0  0  0  0  0  0  0
  -23.9254    0.3817   27.5324 C   0  0  0  0  0  0  0  0  0  0  0  0
  -29.3529   -2.8512   31.4325 C   0  0  0  0  0  0  0  0  0  0  0  0
  -29.7682   -4.1719   31.7054 C   0  0  0  0  0  0  0  0  0  0  0  0
  -29.8349   -5.0751   30.7499 C   0  0  0  0  0  0  0  0  0  0  0  0
  -29.1843   -4.4209   32.8789 O   0  0  0  0  0  0  0  0  0  0  0  0
  -31.1341   -5.5636   30.2553 C   0  0  0  0  0  0  0  0  0  0  0  0
  -31.7231   -4.6454   29.4407 C   0  0  0  0  0  0  0  0  0  0  0  0
  -31.9770   -3.5291   29.6409 C   0  0  0  0  0  0  0  0  0  0  0  0
  -32.5628   -2.5979   28.6558 C   0  0  0  0  0  0  0  0  0  0  0  0
  -32.6552   -1.1841   28.8434 C   0  0  0  0  0  0  0  0  0  0  0  0
  -32.7949   -0.3316   27.8050 C   0  0  0  0  0  0  0  0  0  0  0  0
  -32.0538   -5.2253   28.0592 C   0  0  0  0  0  0  0  0  0  0  0  0
  -32.5638   -4.4461   27.1101 N   0  0  0  0  0  0  0  0  0  0  0  0
  -32.7185   -3.0792   27.3650 C   0  0  0  0  0  0  0  0  0  0  0  0
  -33.0623   -0.8569   26.5518 C   0  0  0  0  0  0  0  0  0  0  0  0
  -32.9609   -2.2313   26.2680 C   0  0  0  0  0  0  0  0  0  0  0  0
  -30.1952   -1.6186   31.8922 C   0  0  0  0  0  0  0  0  0  0  0  0
  -31.2118   -1.7228   32.5485 N   0  0  0  0  0  0  0  0  0  0  0  0
  -31.4165   -1.2035   33.7575 C   0  0  0  0  0  0  0  0  0  0  0  0
  -29.7733   -0.4502   31.5579 O   0  0  0  0  0  0  0  0  0  0  0  0
  -32.1961   -1.4390   34.5550 C   0  0  0  0  0  0  0  0  0  0  0  0
  -33.1581   -2.3828   34.3805 C   0  0  0  0  0  0  0  0  0  0  0  0
  -33.1398   -3.0445   33.0838 C   0  0  0  0  0  0  0  0  0  0  0  0
  6  7  1  0
  3  8  1  0
  7 14  1  0
 14 15  1  0
 15 16  1  0
 15 17  1  0
 16 18  1  0
 18 19  1  0
 14 29  1  0
 29 30  1  0
 30 31  1  0
 29 32  2  0
 31 33  2  3
 33 34  1  0
 34 35  2  0
  1  2  2  0
  2  3  1  0
  3  4  2  0
  4  5  1  0
  5  6  2  0
  6  1  1  0
 21 22  2  0
 22 23  1  0
 23 27  2  0
 27 28  1  0
 28 26  2  0
 19 20  2  0
 20 21  1  0
 21 26  1  0
 26 25  1  0
 25 24  2  0
 24 19  1  0
  8  9  2  0
  9 10  1  0
 10 11  2  0
 11 12  1  0
 12 13  2  0
 13  8  1  0
M  END

$$$$
