No_3435-gen_results/8p0m/2024-11-27-11-27-31/
     RDKit          3D

 35 39  0  0  0  0  0  0  0  0999 V2000
  -28.0162   -0.8135   28.8779 C   0  0  0  0  0  0  0  0  0  0  0  0
  -27.0636   -0.1189   28.6079 C   0  0  0  0  0  0  0  0  0  0  0  0
  -25.7923   -0.4302   29.0761 C   0  0  0  0  0  0  0  0  0  0  0  0
  -24.5456    0.3494   28.8225 C   0  0  0  0  0  0  0  0  0  0  0  0
  -23.2409    0.0217   29.3323 C   0  0  0  0  0  0  0  0  0  0  0  0
  -27.8820   -1.8995   29.8633 C   0  0  0  0  0  0  0  0  0  0  0  0
  -26.6706   -2.3272   30.3212 C   0  0  0  0  0  0  0  0  0  0  0  0
  -25.5433   -1.5852   29.9316 C   0  0  0  0  0  0  0  0  0  0  0  0
  -22.1918    0.8302   29.0004 C   0  0  0  0  0  0  0  0  0  0  0  0
  -22.1472    1.7783   28.0287 C   0  0  0  0  0  0  0  0  0  0  0  0
  -24.5322    1.3987   27.8163 C   0  0  0  0  0  0  0  0  0  0  0  0
  -23.3620    2.0694   27.4607 C   0  0  0  0  0  0  0  0  0  0  0  0
  -29.0683   -2.7198   30.2979 C   0  0  0  0  0  0  0  0  0  0  0  0
  -29.0092   -3.9279   30.2794 O   0  0  0  0  0  0  0  0  0  0  0  0
  -30.1092   -2.1305   30.7127 O   0  0  0  0  0  0  0  0  0  0  0  0
  -23.4848    3.0107   26.5149 F   0  0  0  0  0  0  0  0  0  0  0  0
  -31.2699   -2.8043   30.9844 C   0  0  0  0  0  0  0  0  0  0  0  0
  -31.4306   -3.2467   32.1880 C   0  0  0  0  0  0  0  0  0  0  0  0
  -31.9784   -4.1913   32.4500 O   0  0  0  0  0  0  0  0  0  0  0  0
  -30.3946   -2.8600   33.1190 N   0  0  0  0  0  0  0  0  0  0  0  0
  -30.2568   -2.8581   34.1478 C   0  0  0  0  0  0  0  0  0  0  0  0
  -29.3004   -1.9045   34.7722 C   0  0  0  0  0  0  0  0  0  0  0  0
  -28.5094   -1.1233   33.9014 C   0  0  0  0  0  0  0  0  0  0  0  0
  -27.5662   -0.2224   34.4702 C   0  0  0  0  0  0  0  0  0  0  0  0
  -26.7769    0.6109   33.5210 C   0  0  0  0  0  0  0  0  0  0  0  0
  -27.1011    0.4901   32.1918 C   0  0  0  0  0  0  0  0  0  0  0  0
  -28.2768   -0.1056   31.7940 C   0  0  0  0  0  0  0  0  0  0  0  0
  -28.9786   -0.9223   32.7963 C   0  0  0  0  0  0  0  0  0  0  0  0
  -29.9170   -1.8780   32.3328 C   0  0  0  0  0  0  0  0  0  0  0  0
  -31.1335   -0.7343   32.4730 O   0  0  0  0  0  0  0  0  0  0  0  0
  -28.3271   -2.4836   32.2119 P   0  0  0  0  0  0  0  0  0  0  0  0
  -27.0356   -1.9681   31.8703 O   0  0  0  0  0  0  0  0  0  0  0  0
  -28.2938   -3.6452   32.7612 O   0  0  0  0  0  0  0  0  0  0  0  0
  -27.5280   -3.2981   31.6807 O   0  0  0  0  0  0  0  0  0  0  0  0
  -27.3772   -4.2518   31.2679 F   0  0  0  0  0  0  0  0  0  0  0  0
  3  4  1  0
  6 13  1  0
 13 14  2  0
 13 15  1  0
 12 16  1  0
 15 17  1  0
 17 18  1  0
 18 19  2  0
 18 20  1  0
 20 21  1  0
 22 23  1  0
 20 29  1  0
 28 29  1  0
 29 30  1  0
 29 31  1  0
  7 32  1  0
 31 32  1  0
 31 33  1  0
 31 34  1  0
 34 35  1  0
 21 22  1  0
 23 24  2  0
 24 25  1  0
 25 26  2  0
 26 27  1  0
 27 28  2  0
 28 23  1  0
  1  2  2  0
  2  3  1  0
  3  8  2  0
  8  7  1  0
  7  6  2  0
  6  1  1  0
  4  5  2  0
  5  9  1  0
  9 10  2  0
 10 12  1  0
 12 11  2  0
 11  4  1  0
M  END

$$$$
