No_3306-gen_results/8p0m/2024-11-27-11-27-31/
     RDKit          3D

 35 38  0  0  0  0  0  0  0  0999 V2000
  -28.0162   -0.8135   28.8779 C   0  0  0  0  0  0  0  0  0  0  0  0
  -27.0636   -0.1190   28.6079 C   0  0  0  0  0  0  0  0  0  0  0  0
  -26.9716    0.7139   27.5060 C   0  0  0  0  0  0  0  0  0  0  0  0
  -28.1053    0.7744   26.6421 C   0  0  0  0  0  0  0  0  0  0  0  0
  -29.2008    0.1044   27.0527 C   0  0  0  0  0  0  0  0  0  0  0  0
  -29.2096   -0.6029   28.1853 C   0  0  0  0  0  0  0  0  0  0  0  0
  -30.5651    0.2430   26.0493 Cl  0  0  0  0  0  0  0  0  0  0  0  0
  -25.7033   -0.2337   29.4132 C   0  0  0  0  0  0  0  0  0  0  0  0
  -25.5451   -0.8516   30.2590 C   0  0  0  0  0  0  0  0  0  0  0  0
  -24.3072   -0.9380   31.0296 C   0  0  0  0  0  0  0  0  0  0  0  0
  -23.2853   -0.3415   30.5562 C   0  0  0  0  0  0  0  0  0  0  0  0
  -23.3354    0.4427   29.4257 C   0  0  0  0  0  0  0  0  0  0  0  0
  -24.5950    0.4923   28.6987 C   0  0  0  0  0  0  0  0  0  0  0  0
  -22.1546    1.1101   28.8280 C   0  0  0  0  0  0  0  0  0  0  0  0
  -21.0450    0.9522   29.0998 O   0  0  0  0  0  0  0  0  0  0  0  0
  -22.4337    2.2695   28.1116 O   0  0  0  0  0  0  0  0  0  0  0  0
  -28.0224    1.8463   25.2942 Cl  0  0  0  0  0  0  0  0  0  0  0  0
  -28.0877   -1.6051   29.9589 O   0  0  0  0  0  0  0  0  0  0  0  0
  -29.0909   -1.4524   30.8929 C   0  0  0  0  0  0  0  0  0  0  0  0
  -29.0384   -0.5069   31.7006 C   0  0  0  0  0  0  0  0  0  0  0  0
  -30.0796   -0.1624   32.5434 C   0  0  0  0  0  0  0  0  0  0  0  0
  -31.2013   -1.0399   32.5287 C   0  0  0  0  0  0  0  0  0  0  0  0
  -30.1778   -2.3369   30.8521 C   0  0  0  0  0  0  0  0  0  0  0  0
  -31.2336   -2.1113   31.6694 C   0  0  0  0  0  0  0  0  0  0  0  0
  -32.3396   -0.7989   33.4752 C   0  0  0  0  0  0  0  0  0  0  0  0
  -33.3485   -0.4640   33.2928 C   0  0  0  0  0  0  0  0  0  0  0  0
  -33.8117   -0.1246   31.9001 C   0  0  0  0  0  0  0  0  0  0  0  0
  -35.1707    0.2399   31.6133 C   0  0  0  0  0  0  0  0  0  0  0  0
  -35.5391    0.5818   30.3271 C   0  0  0  0  0  0  0  0  0  0  0  0
  -34.5706    0.4899   29.2910 C   0  0  0  0  0  0  0  0  0  0  0  0
  -33.2535    0.1174   29.5676 C   0  0  0  0  0  0  0  0  0  0  0  0
  -32.9084   -0.1122   30.8240 C   0  0  0  0  0  0  0  0  0  0  0  0
  -32.3233   -2.7851   31.4745 O   0  0  0  0  0  0  0  0  0  0  0  0
  -30.2145   -3.5177   29.9727 C   0  0  0  0  0  0  0  0  0  0  0  0
  -31.2356   -3.7736   29.3543 O   0  0  0  0  0  0  0  0  0  0  0  0
  5  7  1  0
  2  8  1  0
 12 14  1  0
 14 15  2  0
 14 16  1  0
  4 17  1  0
  1 18  1  0
 18 19  1  0
 19 20  1  0
 21 22  1  0
 19 23  1  0
 22 24  1  0
 23 24  1  0
 22 25  1  0
 25 26  2  3
 26 27  1  0
 24 33  2  0
 23 34  1  0
 34 35  1  0
 21 20  1  0
  1  2  1  0
  2  3  2  0
  3  4  1  0
  4  5  2  0
  5  6  1  0
  6  1  2  0
 27 28  2  0
 28 29  1  0
 29 30  2  0
 30 31  1  0
 31 32  2  0
 32 27  1  0
  8  9  2  0
  9 10  1  0
 10 11  2  0
 11 12  1  0
 12 13  2  0
 13  8  1  0
M  END

$$$$
