No_3596-gen_results/8p0m/2024-11-27-11-27-31/
     RDKit          3D

 19 21  0  0  0  0  0  0  0  0999 V2000
  -28.0162   -0.8135   28.8779 C   0  0  0  0  0  0  0  0  0  0  0  0
  -28.4690   -0.7850   29.8287 C   0  0  0  0  0  0  0  0  0  0  0  0
  -26.6082   -0.9454   28.8569 N   0  0  0  0  0  0  0  0  0  0  0  0
  -26.0396   -1.5690   29.9264 C   0  0  0  0  0  0  0  0  0  0  0  0
  -28.1711   -1.6084   31.0855 C   0  0  0  0  0  0  0  0  0  0  0  0
  -26.7104   -1.6313   31.1973 C   0  0  0  0  0  0  0  0  0  0  0  0
  -25.7326   -0.6752   27.7626 C   0  0  0  0  0  0  0  0  0  0  0  0
  -25.1846    0.7063   27.7866 C   0  0  0  0  0  0  0  0  0  0  0  0
  -23.9374    0.8042   28.3256 C   0  0  0  0  0  0  0  0  0  0  0  0
  -23.1974    2.0230   28.2194 C   0  0  0  0  0  0  0  0  0  0  0  0
  -23.6941    3.0001   27.4115 C   0  0  0  0  0  0  0  0  0  0  0  0
  -25.6029    1.6992   26.8820 C   0  0  0  0  0  0  0  0  0  0  0  0
  -24.9153    2.8209   26.6835 C   0  0  0  0  0  0  0  0  0  0  0  0
  -28.6451   -1.1432   32.3007 O   0  0  0  0  0  0  0  0  0  0  0  0
  -26.2704   -0.5019   31.9304 O   0  0  0  0  0  0  0  0  0  0  0  0
  -24.9561   -0.2394   32.0922 C   0  0  0  0  0  0  0  0  0  0  0  0
  -29.3209   -0.3474   32.5008 C   0  0  0  0  0  0  0  0  0  0  0  0
  -30.0171    0.2572   31.5326 C   0  0  0  0  0  0  0  0  0  0  0  0
  -29.6335    0.2180   30.1796 C   0  0  0  0  0  0  0  0  0  0  0  0
  1  2  1  0
  1  3  1  0
  3  4  1  0
  2  5  1  0
  5  6  1  0
  3  7  1  0
  7  8  1  0
  5 14  1  0
  6 15  1  0
 15 16  1  0
 14 17  1  0
 17 18  2  0
  2 19  1  0
 18 19  1  0
  6  4  1  0
  8  9  2  0
  9 10  1  0
 10 11  2  0
 11 13  1  0
 13 12  2  0
 12  8  1  0
M  END

$$$$
