No_358-gen_results/8p0m/2024-11-27-11-27-31/
     RDKit          3D

 16 17  0  0  0  0  0  0  0  0999 V2000
  -28.0162   -0.8135   28.8779 C   0  0  0  0  0  0  0  0  0  0  0  0
  -27.0636   -0.1190   28.6079 C   0  0  0  0  0  0  0  0  0  0  0  0
  -27.0010    0.6913   27.4910 C   0  0  0  0  0  0  0  0  0  0  0  0
  -27.1778    1.9037   27.5632 C   0  0  0  0  0  0  0  0  0  0  0  0
  -28.7446   -0.3657   29.8430 C   0  0  0  0  0  0  0  0  0  0  0  0
  -28.1633    0.0823   31.0800 C   0  0  0  0  0  0  0  0  0  0  0  0
  -26.8214    0.5935   30.9673 C   0  0  0  0  0  0  0  0  0  0  0  0
  -26.2666    0.5981   29.6530 C   0  0  0  0  0  0  0  0  0  0  0  0
  -26.5570    0.0054   26.2512 C   0  0  0  0  0  0  0  0  0  0  0  0
  -27.0798    2.7226   26.2552 C   0  0  0  0  0  0  0  0  0  0  0  0
  -26.4896    0.6892   25.0132 C   0  0  0  0  0  0  0  0  0  0  0  0
  -26.7017    2.0989   25.0124 C   0  0  0  0  0  0  0  0  0  0  0  0
  -24.9514    1.1732   29.4553 C   0  0  0  0  0  0  0  0  0  0  0  0
  -23.8677    0.4219   28.9561 C   0  0  0  0  0  0  0  0  0  0  0  0
  -22.8393    0.2540   29.6800 C   0  0  0  0  0  0  0  0  0  0  0  0
  -25.0363    2.5424   28.6980 C   0  0  0  0  0  0  0  0  0  0  0  0
  1  2  1  0
  2  3  1  0
  1  5  1  0
  5  6  1  0
  6  7  1  0
  2  8  1  0
  7  8  1  0
  8 13  1  0
 13 14  1  0
 14 15  1  0
 13 16  1  0
  3  4  2  0
  4 10  1  0
 10 12  2  0
 12 11  1  0
 11  9  2  0
  9  3  1  0
M  END

$$$$
