No_3490-gen_results/8p0m/2024-11-27-11-27-31/
     RDKit          3D

 31 33  0  0  0  0  0  0  0  0999 V2000
  -28.0162   -0.8135   28.8779 C   0  0  0  0  0  0  0  0  0  0  0  0
  -27.0636   -0.1189   28.6079 C   0  0  0  0  0  0  0  0  0  0  0  0
  -26.9287    1.1713   29.0083 C   0  0  0  0  0  0  0  0  0  0  0  0
  -25.7702    2.0341   28.6884 C   0  0  0  0  0  0  0  0  0  0  0  0
  -24.7141    1.4431   27.9188 C   0  0  0  0  0  0  0  0  0  0  0  0
  -24.8590    0.0783   27.5836 C   0  0  0  0  0  0  0  0  0  0  0  0
  -25.9647   -0.6606   27.9164 C   0  0  0  0  0  0  0  0  0  0  0  0
  -27.9820   -1.6112   30.1028 N   0  0  0  0  0  0  0  0  0  0  0  0
  -23.5351    2.1704   27.5550 C   0  0  0  0  0  0  0  0  0  0  0  0
  -23.4188    3.0100   26.9973 O   0  0  0  0  0  0  0  0  0  0  0  0
  -22.3395    1.7002   28.2176 N   0  0  0  0  0  0  0  0  0  0  0  0
  -29.2100   -0.5850   28.5111 O   0  0  0  0  0  0  0  0  0  0  0  0
  -29.0462   -2.4912   30.5760 C   0  0  0  0  0  0  0  0  0  0  0  0
  -26.6892   -1.8984   30.7796 C   0  0  0  0  0  0  0  0  0  0  0  0
  -29.4102   -2.1593   31.8808 C   0  0  0  0  0  0  0  0  0  0  0  0
  -29.9089   -3.1790   32.4246 O   0  0  0  0  0  0  0  0  0  0  0  0
  -22.2035    0.5644   29.0485 C   0  0  0  0  0  0  0  0  0  0  0  0
  -23.0130    0.4589   30.1265 C   0  0  0  0  0  0  0  0  0  0  0  0
  -23.0492   -0.7185   30.9411 C   0  0  0  0  0  0  0  0  0  0  0  0
  -23.8766   -0.8005   32.0464 C   0  0  0  0  0  0  0  0  0  0  0  0
  -24.8022    0.1892   32.3931 C   0  0  0  0  0  0  0  0  0  0  0  0
  -24.7279    1.4493   31.6574 C   0  0  0  0  0  0  0  0  0  0  0  0
  -23.8780    1.5504   30.5979 C   0  0  0  0  0  0  0  0  0  0  0  0
  -28.8466   -1.3144   32.4602 O   0  0  0  0  0  0  0  0  0  0  0  0
  -21.3059   -0.2222   28.7474 O   0  0  0  0  0  0  0  0  0  0  0  0
  -25.5870    2.5366   32.1539 C   0  0  0  0  0  0  0  0  0  0  0  0
  -26.5566    2.4088   33.0511 C   0  0  0  0  0  0  0  0  0  0  0  0
  -27.3591    3.4578   33.4904 C   0  0  0  0  0  0  0  0  0  0  0  0
  -27.1302    4.7232   32.9587 C   0  0  0  0  0  0  0  0  0  0  0  0
  -25.1105    3.9136   31.8382 C   0  0  0  0  0  0  0  0  0  0  0  0
  -25.9251    4.9746   32.2290 C   0  0  0  0  0  0  0  0  0  0  0  0
  1  2  1  0
  1  8  1  0
  5  9  1  0
  9 10  2  0
  9 11  1  0
  1 12  2  0
  8 13  1  0
  8 14  1  0
 13 15  1  0
 15 16  1  0
 11 17  1  0
 17 18  1  0
 15 24  2  0
 17 25  2  0
 22 26  1  0
 18 19  2  0
 19 20  1  0
 20 21  2  0
 21 22  1  0
 22 23  2  0
 23 18  1  0
  2  3  2  0
  3  4  1  0
  4  5  2  0
  5  6  1  0
  6  7  2  0
  7  2  1  0
 26 27  2  0
 27 28  1  0
 28 29  2  0
 29 31  1  0
 31 30  2  0
 30 26  1  0
M  END

$$$$
