No_3359-gen_results/8p0m/2024-11-27-11-27-31/
     RDKit          3D

 13 14  0  0  0  0  0  0  0  0999 V2000
  -28.0162   -0.8135   28.8779 C   0  0  0  0  0  0  0  0  0  0  0  0
  -27.0636   -0.1189   28.6079 C   0  0  0  0  0  0  0  0  0  0  0  0
  -25.7647   -0.3897   29.0360 C   0  0  0  0  0  0  0  0  0  0  0  0
  -25.5296   -1.5302   29.9014 C   0  0  0  0  0  0  0  0  0  0  0  0
  -26.6577   -2.2915   30.2035 C   0  0  0  0  0  0  0  0  0  0  0  0
  -27.8548   -1.9555   29.7630 C   0  0  0  0  0  0  0  0  0  0  0  0
  -24.5349    0.4128   28.7431 C   0  0  0  0  0  0  0  0  0  0  0  0
  -24.0543    1.3255   29.5757 C   0  0  0  0  0  0  0  0  0  0  0  0
  -22.9236    2.1284   29.2147 C   0  0  0  0  0  0  0  0  0  0  0  0
  -22.4273    1.8993   27.9165 C   0  0  0  0  0  0  0  0  0  0  0  0
  -23.7638    0.4895   27.5126 C   0  0  0  0  0  0  0  0  0  0  0  0
  -22.7389    1.3214   27.2081 C   0  0  0  0  0  0  0  0  0  0  0  0
  -22.3783    1.2815   25.9017 O   0  0  0  0  0  0  0  0  0  0  0  0
  3  7  1  0
  7  8  2  0
  8  9  1  0
  9 10  2  0
  7 11  1  0
 10 11  1  0
 10 12  1  0
 12 13  1  0
  1  2  2  0
  2  3  1  0
  3  4  2  0
  4  5  1  0
  5  6  2  0
  6  1  1  0
M  END

$$$$
