No_3668-gen_results/8p0m/2024-11-27-11-27-31/
     RDKit          3D

 25 27  0  0  0  0  0  0  0  0999 V2000
  -28.0162   -0.8135   28.8779 C   0  0  0  0  0  0  0  0  0  0  0  0
  -28.4690   -0.7850   29.8287 C   0  0  0  0  0  0  0  0  0  0  0  0
  -26.6082   -0.9454   28.8569 N   0  0  0  0  0  0  0  0  0  0  0  0
  -25.7271   -0.3586   27.9991 C   0  0  0  0  0  0  0  0  0  0  0  0
  -24.3406   -0.4775   28.2916 C   0  0  0  0  0  0  0  0  0  0  0  0
  -24.1415   -1.4913   29.2988 C   0  0  0  0  0  0  0  0  0  0  0  0
  -25.8153   -1.7365   29.8057 C   0  0  0  0  0  0  0  0  0  0  0  0
  -28.1462   -0.6183   30.9496 C   0  0  0  0  0  0  0  0  0  0  0  0
  -29.0634   -0.6395   32.1437 C   0  0  0  0  0  0  0  0  0  0  0  0
  -30.3696   -0.8611   31.9109 C   0  0  0  0  0  0  0  0  0  0  0  0
  -30.8179   -1.1041   30.6768 C   0  0  0  0  0  0  0  0  0  0  0  0
  -29.9782   -1.1025   29.6575 C   0  0  0  0  0  0  0  0  0  0  0  0
  -26.0611    0.5206   26.9072 C   0  0  0  0  0  0  0  0  0  0  0  0
  -27.0321    0.5436   26.2991 C   0  0  0  0  0  0  0  0  0  0  0  0
  -27.4373    1.1633   25.3546 C   0  0  0  0  0  0  0  0  0  0  0  0
  -28.7856    1.1342   24.7646 C   0  0  0  0  0  0  0  0  0  0  0  0
  -29.2995    2.0921   24.1103 C   0  0  0  0  0  0  0  0  0  0  0  0
  -30.2027    2.9502   24.5369 C   0  0  0  0  0  0  0  0  0  0  0  0
  -31.2030    3.5779   23.6872 C   0  0  0  0  0  0  0  0  0  0  0  0
  -25.1915    1.5637   26.4949 C   0  0  0  0  0  0  0  0  0  0  0  0
  -23.8320    1.7180   27.0971 C   0  0  0  0  0  0  0  0  0  0  0  0
  -23.4021    0.5936   28.0324 C   0  0  0  0  0  0  0  0  0  0  0  0
  -32.1809    4.4055   24.1818 C   0  0  0  0  0  0  0  0  0  0  0  0
  -32.1205    4.7446   25.5852 C   0  0  0  0  0  0  0  0  0  0  0  0
  -31.1521    4.2957   26.4101 C   0  0  0  0  0  0  0  0  0  0  0  0
  1  2  1  0
  1  3  1  0
  3  4  1  0
  5  6  1  0
  3  7  1  0
  6  7  2  0
 13 14  1  0
 14 15  2  3
 15 16  1  0
 16 17  1  0
 17 18  2  3
 18 19  1  0
 19 23  2  3
 23 24  1  0
 24 25  2  0
  2  8  2  0
  8  9  1  0
  9 10  2  0
 10 11  1  0
 11 12  2  0
 12  2  1  0
  4  5  2  0
  5 22  1  0
 22 21  2  0
 21 20  1  0
 20 13  2  0
 13  4  1  0
M  END

$$$$
