No_3422-gen_results/8p0m/2024-11-27-11-27-31/
     RDKit          3D

 29 31  0  0  0  0  0  0  0  0999 V2000
  -28.0162   -0.8135   28.8779 C   0  0  0  0  0  0  0  0  0  0  0  0
  -28.4690   -0.7850   29.8287 C   0  0  0  0  0  0  0  0  0  0  0  0
  -26.5455   -0.8762   28.8500 C   0  0  0  0  0  0  0  0  0  0  0  0
  -25.8041   -1.0324   30.0571 C   0  0  0  0  0  0  0  0  0  0  0  0
  -26.5373   -1.0386   31.2171 C   0  0  0  0  0  0  0  0  0  0  0  0
  -27.8929   -0.9601   31.1743 C   0  0  0  0  0  0  0  0  0  0  0  0
  -25.8272   -0.8507   27.7418 F   0  0  0  0  0  0  0  0  0  0  0  0
  -28.6708   -0.9511   32.4577 C   0  0  0  0  0  0  0  0  0  0  0  0
  -28.1913   -0.4661   33.3838 O   0  0  0  0  0  0  0  0  0  0  0  0
  -29.6122   -1.8933   32.5848 O   0  0  0  0  0  0  0  0  0  0  0  0
  -24.3422   -1.1468   30.0554 C   0  0  0  0  0  0  0  0  0  0  0  0
  -23.6974    0.0764   30.0732 C   0  0  0  0  0  0  0  0  0  0  0  0
  -22.4713    0.2210   29.2910 C   0  0  0  0  0  0  0  0  0  0  0  0
  -21.9099    1.4292   28.9681 C   0  0  0  0  0  0  0  0  0  0  0  0
  -22.5013    1.9184   27.7154 C   0  0  0  0  0  0  0  0  0  0  0  0
  -23.7440    2.5749   27.7643 C   0  0  0  0  0  0  0  0  0  0  0  0
  -24.3273    2.9988   26.5090 C   0  0  0  0  0  0  0  0  0  0  0  0
  -25.6010    3.5461   26.5424 C   0  0  0  0  0  0  0  0  0  0  0  0
  -26.4062    3.4639   27.6461 C   0  0  0  0  0  0  0  0  0  0  0  0
  -25.8460    2.9734   28.8775 C   0  0  0  0  0  0  0  0  0  0  0  0
  -24.5793    2.4688   28.9132 C   0  0  0  0  0  0  0  0  0  0  0  0
  -26.7366    2.9430   30.0785 C   0  0  0  0  0  0  0  0  0  0  0  0
  -26.9420    3.9729   30.8525 N   0  0  0  0  0  0  0  0  0  0  0  0
  -27.6073    3.9665   31.9432 C   0  0  0  0  0  0  0  0  0  0  0  0
  -26.2996    5.2086   30.5075 C   0  0  0  0  0  0  0  0  0  0  0  0
  -26.1005    6.0570   31.1101 C   0  0  0  0  0  0  0  0  0  0  0  0
  -27.5624    5.1380   32.8596 C   0  0  0  0  0  0  0  0  0  0  0  0
  -26.8246    6.2564   32.4484 C   0  0  0  0  0  0  0  0  0  0  0  0
  -27.6095    2.0181   30.1022 O   0  0  0  0  0  0  0  0  0  0  0  0
  3  7  1  0
  6  8  1  0
  8  9  2  0
  8 10  1  0
  4 11  1  0
 11 12  1  0
 12 13  2  3
 13 14  1  0
 14 15  1  0
 15 16  1  0
 20 22  1  0
 22 23  1  0
 23 24  1  0
 23 25  1  0
 26 28  1  0
 27 28  1  0
 22 29  2  0
 24 27  1  0
 26 25  1  0
  1  2  2  0
  2  6  1  0
  6  5  2  0
  5  4  1  0
  4  3  2  0
  3  1  1  0
 16 17  2  0
 17 18  1  0
 18 19  2  0
 19 20  1  0
 20 21  2  0
 21 16  1  0
M  END

$$$$
