No_3664-gen_results/8p0m/2024-11-27-11-27-31/
     RDKit          3D

 25 28  0  0  0  0  0  0  0  0999 V2000
  -28.0162   -0.8135   28.8779 C   0  0  0  0  0  0  0  0  0  0  0  0
  -27.0636   -0.1190   28.6079 C   0  0  0  0  0  0  0  0  0  0  0  0
  -25.7923   -0.4302   29.0761 C   0  0  0  0  0  0  0  0  0  0  0  0
  -25.5756   -1.5654   29.9363 C   0  0  0  0  0  0  0  0  0  0  0  0
  -26.7354   -2.3004   30.2173 C   0  0  0  0  0  0  0  0  0  0  0  0
  -27.9184   -1.9537   29.7629 C   0  0  0  0  0  0  0  0  0  0  0  0
  -27.1057    1.1023   27.7593 C   0  0  0  0  0  0  0  0  0  0  0  0
  -27.8576    1.5309   27.2156 C   0  0  0  0  0  0  0  0  0  0  0  0
  -29.2421    0.8816   27.2919 C   0  0  0  0  0  0  0  0  0  0  0  0
  -29.5768   -0.0587   28.1159 C   0  0  0  0  0  0  0  0  0  0  0  0
  -30.4244    1.4745   26.5881 C   0  0  0  0  0  0  0  0  0  0  0  0
  -31.5292    1.1325   26.8928 C   0  0  0  0  0  0  0  0  0  0  0  0
  -32.6536    1.6608   26.2674 C   0  0  0  0  0  0  0  0  0  0  0  0
  -32.4076    2.6333   25.2082 C   0  0  0  0  0  0  0  0  0  0  0  0
  -31.1454    3.0039   24.8471 C   0  0  0  0  0  0  0  0  0  0  0  0
  -30.0796    2.4901   25.5544 C   0  0  0  0  0  0  0  0  0  0  0  0
  -28.9605   -2.7010   30.1751 O   0  0  0  0  0  0  0  0  0  0  0  0
  -29.3074   -2.6288   31.5026 C   0  0  0  0  0  0  0  0  0  0  0  0
  -30.6818   -2.3576   31.7046 C   0  0  0  0  0  0  0  0  0  0  0  0
  -31.5127   -2.4020   30.7760 C   0  0  0  0  0  0  0  0  0  0  0  0
  -32.7715   -1.6964   30.9330 C   0  0  0  0  0  0  0  0  0  0  0  0
  -33.6914   -1.5809   29.8804 C   0  0  0  0  0  0  0  0  0  0  0  0
  -33.3790   -2.2003   28.6579 C   0  0  0  0  0  0  0  0  0  0  0  0
  -32.2072   -2.8621   28.4567 C   0  0  0  0  0  0  0  0  0  0  0  0
  -31.3171   -2.8610   29.4573 C   0  0  0  0  0  0  0  0  0  0  0  0
  9 11  1  0
  6 17  1  0
 17 18  1  0
 18 19  1  0
 19 20  1  0
  2  7  1  0
  7  8  2  0
  8  9  1  0
  9 10  2  0
 10  1  1  0
  1  2  1  0
  2  3  2  0
  3  4  1  0
  4  5  2  0
  5  6  1  0
  6  1  2  0
 11 12  2  0
 12 13  1  0
 13 14  2  0
 14 15  1  0
 15 16  2  0
 16 11  1  0
 20 21  2  0
 21 22  1  0
 22 23  2  0
 23 24  1  0
 24 25  2  0
 25 20  1  0
M  END

$$$$
