No_32-gen_results/8p0m/2024-11-27-11-27-31/
     RDKit          3D

 35 38  0  0  0  0  0  0  0  0999 V2000
  -28.0162   -0.8135   28.8779 C   0  0  0  0  0  0  0  0  0  0  0  0
  -27.0636   -0.1189   28.6079 C   0  0  0  0  0  0  0  0  0  0  0  0
  -26.9287    1.1713   29.0083 C   0  0  0  0  0  0  0  0  0  0  0  0
  -27.9560    1.7411   29.7840 C   0  0  0  0  0  0  0  0  0  0  0  0
  -29.0569   -0.3271   29.7466 C   0  0  0  0  0  0  0  0  0  0  0  0
  -30.1704   -1.1582   30.1327 C   0  0  0  0  0  0  0  0  0  0  0  0
  -28.9772    0.9577   30.1786 C   0  0  0  0  0  0  0  0  0  0  0  0
  -31.2739   -1.0414   29.5690 C   0  0  0  0  0  0  0  0  0  0  0  0
  -31.4591   -0.0172   28.5872 C   0  0  0  0  0  0  0  0  0  0  0  0
  -31.9456    0.0626   27.6728 C   0  0  0  0  0  0  0  0  0  0  0  0
  -32.1195    1.2140   26.7378 C   0  0  0  0  0  0  0  0  0  0  0  0
  -31.4687    2.3714   27.1666 C   0  0  0  0  0  0  0  0  0  0  0  0
  -30.7936    2.3790   28.3177 C   0  0  0  0  0  0  0  0  0  0  0  0
  -30.7043    1.2592   29.0594 C   0  0  0  0  0  0  0  0  0  0  0  0
  -29.6647    1.3150   29.9947 C   0  0  0  0  0  0  0  0  0  0  0  0
  -30.3123    2.2056   31.0950 C   0  0  0  0  0  0  0  0  0  0  0  0
  -30.7108    1.6408   32.2244 C   0  0  0  0  0  0  0  0  0  0  0  0
  -31.4592    2.3608   33.1571 C   0  0  0  0  0  0  0  0  0  0  0  0
  -31.9650    1.7008   34.2951 C   0  0  0  0  0  0  0  0  0  0  0  0
  -31.6580    0.3388   34.4686 C   0  0  0  0  0  0  0  0  0  0  0  0
  -30.9034   -0.3558   33.5855 C   0  0  0  0  0  0  0  0  0  0  0  0
  -30.4248    0.3126   32.4823 C   0  0  0  0  0  0  0  0  0  0  0  0
  -29.3223    3.4951   31.3918 C   0  0  0  0  0  0  0  0  0  0  0  0
  -25.9275   -0.5680   27.7237 C   0  0  0  0  0  0  0  0  0  0  0  0
  -25.5514    0.1845   26.6279 C   0  0  0  0  0  0  0  0  0  0  0  0
  -25.2908    1.3914   26.4529 C   0  0  0  0  0  0  0  0  0  0  0  0
  -24.0995    2.0627   27.0160 C   0  0  0  0  0  0  0  0  0  0  0  0
  -23.8585    3.4042   26.7562 C   0  0  0  0  0  0  0  0  0  0  0  0
  -23.0502    1.3292   27.6895 C   0  0  0  0  0  0  0  0  0  0  0  0
  -23.1781    1.0798   29.0105 C   0  0  0  0  0  0  0  0  0  0  0  0
  -22.3390    0.1619   29.5492 N   0  0  0  0  0  0  0  0  0  0  0  0
  -23.7408    1.8701   29.8534 O   0  0  0  0  0  0  0  0  0  0  0  0
  -28.5673    3.5097   32.3103 C   0  0  0  0  0  0  0  0  0  0  0  0
  -27.6963    4.5623   32.5445 C   0  0  0  0  0  0  0  0  0  0  0  0
  -26.6993    4.5738   33.6144 C   0  0  0  0  0  0  0  0  0  0  0  0
  5  6  1  0
  6  8  2  0
  8  9  1  0
  7 15  1  0
 14 15  1  0
 15 16  1  0
 16 17  1  0
 16 23  1  0
  2 24  1  0
 24 25  2  3
 25 26  1  0
 26 27  2  3
 27 28  1  0
 27 29  1  0
 29 30  1  0
 30 31  1  0
 30 32  2  0
 23 33  1  0
 33 34  2  3
 34 35  1  0
  9 10  2  0
 10 11  1  0
 11 12  2  0
 12 13  1  0
 13 14  2  0
 14  9  1  0
 17 18  2  0
 18 19  1  0
 19 20  2  0
 20 21  1  0
 21 22  2  0
 22 17  1  0
  1  2  2  0
  2  3  1  0
  3  4  2  0
  4  7  1  0
  7  5  2  0
  5  1  1  0
M  END

$$$$
