No_3160-gen_results/8p0m/2024-11-27-11-27-31/
     RDKit          3D

 28 31  0  0  0  0  0  0  0  0999 V2000
  -28.1229   -1.3353   28.4874 O   0  0  0  0  0  0  0  0  0  0  0  0
  -27.0637   -0.8242   28.8687 C   0  0  0  0  0  0  0  0  0  0  0  0
  -25.9464   -1.0396   28.8492 C   0  0  0  0  0  0  0  0  0  0  0  0
  -24.7602   -0.1562   29.1644 C   0  0  0  0  0  0  0  0  0  0  0  0
  -23.3890   -0.4551   29.0162 C   0  0  0  0  0  0  0  0  0  0  0  0
  -27.2690    0.5956   29.5360 N   0  0  0  0  0  0  0  0  0  0  0  0
  -28.6234    1.0171   29.6516 C   0  0  0  0  0  0  0  0  0  0  0  0
  -22.4144    0.5369   29.0739 C   0  0  0  0  0  0  0  0  0  0  0  0
  -22.8439    1.8365   29.0197 C   0  0  0  0  0  0  0  0  0  0  0  0
  -24.1445    2.2223   29.0147 C   0  0  0  0  0  0  0  0  0  0  0  0
  -25.1294    1.2302   29.0244 C   0  0  0  0  0  0  0  0  0  0  0  0
  -26.2723    1.3487   30.0697 C   0  0  0  0  0  0  0  0  0  0  0  0
  -29.2057    1.5208   28.8762 C   0  0  0  0  0  0  0  0  0  0  0  0
  -30.5659    2.0297   29.0124 C   0  0  0  0  0  0  0  0  0  0  0  0
  -31.1590    1.8758   30.2793 C   0  0  0  0  0  0  0  0  0  0  0  0
  -29.1508    0.8011   31.0618 C   0  0  0  0  0  0  0  0  0  0  0  0
  -30.4147    1.2277   31.2950 C   0  0  0  0  0  0  0  0  0  0  0  0
  -28.7095    1.7676   27.4120 C   0  0  0  0  0  0  0  0  0  0  0  0
  -29.0773    0.9821   26.3651 C   0  0  0  0  0  0  0  0  0  0  0  0
  -28.5644    1.2177   25.1587 C   0  0  0  0  0  0  0  0  0  0  0  0
  -27.4582    2.1172   24.9567 C   0  0  0  0  0  0  0  0  0  0  0  0
  -27.7274    2.8103   27.2403 C   0  0  0  0  0  0  0  0  0  0  0  0
  -27.1549    2.9951   26.0266 C   0  0  0  0  0  0  0  0  0  0  0  0
  -25.4855   -2.2422   28.3291 O   0  0  0  0  0  0  0  0  0  0  0  0
  -28.8566    0.3242   24.0169 C   0  0  0  0  0  0  0  0  0  0  0  0
  -29.8080   -0.2736   24.5015 F   0  0  0  0  0  0  0  0  0  0  0  0
  -27.8397   -0.4925   23.6966 F   0  0  0  0  0  0  0  0  0  0  0  0
  -29.0544    0.9865   22.9344 F   0  0  0  0  0  0  0  0  0  0  0  0
  1  2  2  0
  2  3  1  0
  3  4  1  0
  2  6  1  0
  6  7  1  0
  6 12  1  0
 11 12  1  0
 13 18  1  0
  3 24  2  0
 20 25  1  0
 25 26  1  0
 25 27  1  0
 25 28  1  0
  7 13  1  0
 13 14  2  0
 14 15  1  0
 15 17  2  0
 17 16  1  0
 16  7  2  0
 18 19  2  0
 19 20  1  0
 20 21  2  0
 21 23  1  0
 23 22  2  0
 22 18  1  0
  4  5  2  0
  5  8  1  0
  8  9  2  0
  9 10  1  0
 10 11  2  0
 11  4  1  0
M  END

$$$$
