No_3090-gen_results/8p0m/2024-11-27-11-27-31/
     RDKit          3D

 21 23  0  0  0  0  0  0  0  0999 V2000
  -28.0162   -0.8135   28.8779 C   0  0  0  0  0  0  0  0  0  0  0  0
  -27.0636   -0.1189   28.6079 C   0  0  0  0  0  0  0  0  0  0  0  0
  -27.0010    0.6913   27.4910 C   0  0  0  0  0  0  0  0  0  0  0  0
  -25.7770    1.0214   26.9135 C   0  0  0  0  0  0  0  0  0  0  0  0
  -24.5088    0.7364   27.5686 C   0  0  0  0  0  0  0  0  0  0  0  0
  -24.5930   -0.0361   28.7390 C   0  0  0  0  0  0  0  0  0  0  0  0
  -25.8114   -0.4771   29.1584 C   0  0  0  0  0  0  0  0  0  0  0  0
  -28.1069   -1.4831   30.2046 C   0  0  0  0  0  0  0  0  0  0  0  0
  -26.9076   -1.8560   30.8505 C   0  0  0  0  0  0  0  0  0  0  0  0
  -25.7217   -1.3535   30.3451 C   0  0  0  0  0  0  0  0  0  0  0  0
  -23.2385   -0.3070   29.3552 C   0  0  0  0  0  0  0  0  0  0  0  0
  -22.0883    0.2455   28.8761 C   0  0  0  0  0  0  0  0  0  0  0  0
  -22.1278    1.1026   27.7552 C   0  0  0  0  0  0  0  0  0  0  0  0
  -23.3125    1.4202   27.1157 C   0  0  0  0  0  0  0  0  0  0  0  0
  -28.2237    1.0427   26.7512 C   0  0  0  0  0  0  0  0  0  0  0  0
  -29.0959    1.4008   27.1916 O   0  0  0  0  0  0  0  0  0  0  0  0
  -28.2322    0.4398   25.4719 O   0  0  0  0  0  0  0  0  0  0  0  0
  -29.3823   -2.0491   30.6631 C   0  0  0  0  0  0  0  0  0  0  0  0
  -29.4951   -3.1223   31.0179 O   0  0  0  0  0  0  0  0  0  0  0  0
  -30.4143   -1.2683   30.6009 O   0  0  0  0  0  0  0  0  0  0  0  0
  -29.3908    0.1448   24.8535 C   0  0  0  0  0  0  0  0  0  0  0  0
  3 15  1  0
 15 16  2  0
 15 17  1  0
  8 18  1  0
 18 19  2  0
 18 20  1  0
 17 21  1  0
  2  3  1  0
  3  4  2  0
  4  5  1  0
  6  7  1  0
  1  2  2  0
  2  7  1  0
  7 10  2  0
 10  9  1  0
  9  8  2  0
  8  1  1  0
  5  6  2  0
  6 11  1  0
 11 12  2  0
 12 13  1  0
 13 14  2  0
 14  5  1  0
M  END

$$$$
