No_3486-gen_results/8p0m/2024-11-27-11-27-31/
     RDKit          3D

 21 24  0  0  0  0  0  0  0  0999 V2000
  -28.0162   -0.8135   28.8779 C   0  0  0  0  0  0  0  0  0  0  0  0
  -27.0636   -0.1189   28.6079 C   0  0  0  0  0  0  0  0  0  0  0  0
  -25.7923   -0.4302   29.0761 C   0  0  0  0  0  0  0  0  0  0  0  0
  -25.5756   -1.5654   29.9363 C   0  0  0  0  0  0  0  0  0  0  0  0
  -26.7354   -2.3004   30.2173 C   0  0  0  0  0  0  0  0  0  0  0  0
  -27.9184   -1.9537   29.7629 C   0  0  0  0  0  0  0  0  0  0  0  0
  -27.1057    1.1023   27.7593 C   0  0  0  0  0  0  0  0  0  0  0  0
  -26.1219    1.4820   27.0232 C   0  0  0  0  0  0  0  0  0  0  0  0
  -24.7142    1.1299   27.4889 C   0  0  0  0  0  0  0  0  0  0  0  0
  -24.5718    0.0966   28.4066 C   0  0  0  0  0  0  0  0  0  0  0  0
  -23.5495    1.7790   26.9027 C   0  0  0  0  0  0  0  0  0  0  0  0
  -22.3889    1.9020   27.6778 C   0  0  0  0  0  0  0  0  0  0  0  0
  -21.3017    2.5807   27.1972 C   0  0  0  0  0  0  0  0  0  0  0  0
  -21.3611    2.5095   25.7227 C   0  0  0  0  0  0  0  0  0  0  0  0
  -23.2463    2.0049   25.5218 C   0  0  0  0  0  0  0  0  0  0  0  0
  -22.3371    2.4342   24.9613 C   0  0  0  0  0  0  0  0  0  0  0  0
  -28.4753    1.5457   27.3539 C   0  0  0  0  0  0  0  0  0  0  0  0
  -28.6259    2.1736   26.2700 C   0  0  0  0  0  0  0  0  0  0  0  0
  -27.4734    2.7452   25.5456 C   0  0  0  0  0  0  0  0  0  0  0  0
  -26.2245    2.4929   26.0267 C   0  0  0  0  0  0  0  0  0  0  0  0
  -29.3209   -2.7879   30.2799 Cl  0  0  0  0  0  0  0  0  0  0  0  0
  9 11  1  0
  6 21  1  0
  1  2  2  0
  3  4  2  0
  4  5  1  0
  5  6  2  0
  6  1  1  0
 11 12  2  0
 12 13  1  0
 13 14  2  0
 14 16  1  0
 16 15  2  0
 15 11  1  0
  2  3  1  0
  3 10  1  0
 10  9  2  0
  9  8  1  0
  7  2  1  0
  7  8  2  0
  8 20  1  0
 20 19  2  0
 19 18  1  0
 18 17  2  0
 17  7  1  0
M  END

$$$$
