No_305-gen_results/8p0m/2024-11-27-11-27-31/
     RDKit          3D

 35 39  0  0  0  0  0  0  0  0999 V2000
  -28.0162   -0.8135   28.8779 C   0  0  0  0  0  0  0  0  0  0  0  0
  -28.4690   -0.7850   29.8287 C   0  0  0  0  0  0  0  0  0  0  0  0
  -26.5042   -0.7777   28.8766 C   0  0  0  0  0  0  0  0  0  0  0  0
  -25.7622   -0.0022   27.9705 C   0  0  0  0  0  0  0  0  0  0  0  0
  -29.9993   -0.7599   29.8953 C   0  0  0  0  0  0  0  0  0  0  0  0
  -24.3210   -0.0297   28.0177 C   0  0  0  0  0  0  0  0  0  0  0  0
  -23.6855   -0.8662   28.9737 C   0  0  0  0  0  0  0  0  0  0  0  0
  -24.4066   -1.6560   29.8003 C   0  0  0  0  0  0  0  0  0  0  0  0
  -25.7874   -1.6267   29.7609 C   0  0  0  0  0  0  0  0  0  0  0  0
  -30.7322   -1.3187   30.8866 C   0  0  0  0  0  0  0  0  0  0  0  0
  -30.2760   -1.9445   31.5841 C   0  0  0  0  0  0  0  0  0  0  0  0
  -28.8860   -2.2411   31.8886 C   0  0  0  0  0  0  0  0  0  0  0  0
  -28.0657   -1.8008   30.8425 C   0  0  0  0  0  0  0  0  0  0  0  0
  -26.6955   -2.0486   30.8933 N   0  0  0  0  0  0  0  0  0  0  0  0
  -26.2405    0.6817   27.0429 F   0  0  0  0  0  0  0  0  0  0  0  0
  -22.2008   -0.8500   29.0039 C   0  0  0  0  0  0  0  0  0  0  0  0
  -21.7223   -1.8073   29.4401 F   0  0  0  0  0  0  0  0  0  0  0  0
  -21.6565   -0.4520   27.8030 F   0  0  0  0  0  0  0  0  0  0  0  0
  -21.8761    0.1656   29.9258 F   0  0  0  0  0  0  0  0  0  0  0  0
  -30.5922    0.0919   28.7896 C   0  0  0  0  0  0  0  0  0  0  0  0
  -30.7466   -0.3599   27.6919 O   0  0  0  0  0  0  0  0  0  0  0  0
  -30.9709    1.2724   29.0878 O   0  0  0  0  0  0  0  0  0  0  0  0
  -31.2183    2.2317   28.1871 C   0  0  0  0  0  0  0  0  0  0  0  0
  -30.1458    2.9730   27.7342 C   0  0  0  0  0  0  0  0  0  0  0  0
  -29.7746    2.8723   26.5430 C   0  0  0  0  0  0  0  0  0  0  0  0
  -28.4678    3.5086   26.0981 C   0  0  0  0  0  0  0  0  0  0  0  0
  -27.6839    4.2052   27.0187 C   0  0  0  0  0  0  0  0  0  0  0  0
  -29.2511    3.6219   28.6972 C   0  0  0  0  0  0  0  0  0  0  0  0
  -29.6581    3.6742   30.1295 C   0  0  0  0  0  0  0  0  0  0  0  0
  -28.0528    4.2469   28.3132 C   0  0  0  0  0  0  0  0  0  0  0  0
  -28.6711    3.3910   30.9914 C   0  0  0  0  0  0  0  0  0  0  0  0
  -29.0475    3.4323   32.4153 C   0  0  0  0  0  0  0  0  0  0  0  0
  -30.3561    3.4581   32.7635 C   0  0  0  0  0  0  0  0  0  0  0  0
  -31.3379    3.6825   31.8207 C   0  0  0  0  0  0  0  0  0  0  0  0
  -30.9719    3.7541   30.4729 C   0  0  0  0  0  0  0  0  0  0  0  0
  1  2  1  0
  1  3  1  0
  9 14  1  0
 13 14  1  0
  4 15  1  0
  7 16  1  0
 16 17  1  0
 16 18  1  0
 16 19  1  0
  5 20  1  0
 20 21  2  0
 20 22  1  0
 22 23  1  0
 23 24  1  0
 28 29  1  0
  3  4  2  0
  4  6  1  0
  6  7  2  0
  7  8  1  0
  8  9  2  0
  9  3  1  0
  2  5  2  0
  5 10  1  0
 10 11  2  0
 11 12  1  0
 12 13  2  0
 13  2  1  0
 29 31  2  0
 31 32  1  0
 32 33  2  0
 33 34  1  0
 34 35  2  0
 35 29  1  0
 24 25  2  0
 25 26  1  0
 26 27  2  0
 27 30  1  0
 30 28  2  0
 28 24  1  0
M  END

$$$$
