No_3469-gen_results/8p0m/2024-11-27-11-27-31/
     RDKit          3D

 18 19  0  0  0  0  0  0  0  0999 V2000
  -28.0162   -0.8135   28.8779 C   0  0  0  0  0  0  0  0  0  0  0  0
  -27.0636   -0.1189   28.6079 C   0  0  0  0  0  0  0  0  0  0  0  0
  -25.7923   -0.4302   29.0761 C   0  0  0  0  0  0  0  0  0  0  0  0
  -25.5756   -1.5654   29.9363 C   0  0  0  0  0  0  0  0  0  0  0  0
  -26.7354   -2.3004   30.2173 C   0  0  0  0  0  0  0  0  0  0  0  0
  -27.9184   -1.9537   29.7629 C   0  0  0  0  0  0  0  0  0  0  0  0
  -28.8388   -2.7938   30.2059 O   0  0  0  0  0  0  0  0  0  0  0  0
  -24.5373    0.3646   28.7951 C   0  0  0  0  0  0  0  0  0  0  0  0
  -23.3473    0.0192   29.1654 C   0  0  0  0  0  0  0  0  0  0  0  0
  -22.1852    0.7960   28.7768 C   0  0  0  0  0  0  0  0  0  0  0  0
  -22.3583    1.7790   27.7553 C   0  0  0  0  0  0  0  0  0  0  0  0
  -24.6077    1.3677   27.7466 C   0  0  0  0  0  0  0  0  0  0  0  0
  -23.5455    2.0765   27.3290 C   0  0  0  0  0  0  0  0  0  0  0  0
  -30.0598   -2.3505   30.4699 C   0  0  0  0  0  0  0  0  0  0  0  0
  -30.4110   -1.3281   30.7562 C   0  0  0  0  0  0  0  0  0  0  0  0
  -31.1923   -0.7213   31.1387 C   0  0  0  0  0  0  0  0  0  0  0  0
  -32.0601   -1.1198   32.0019 C   0  0  0  0  0  0  0  0  0  0  0  0
  -31.9941   -2.6141   32.0870 C   0  0  0  0  0  0  0  0  0  0  0  0
  6  7  1  0
  3  8  1  0
  7 14  1  0
 14 15  2  3
 15 16  1  0
 16 17  2  3
 17 18  1  0
  1  2  2  0
  2  3  1  0
  3  4  2  0
  4  5  1  0
  5  6  2  0
  6  1  1  0
  8  9  2  0
  9 10  1  0
 10 11  2  0
 11 13  1  0
 13 12  2  0
 12  8  1  0
M  END

$$$$
