No_330-gen_results/8p0m/2024-11-27-11-27-31/
     RDKit          3D

 27 29  0  0  0  0  0  0  0  0999 V2000
  -28.0162   -0.8135   28.8779 C   0  0  0  0  0  0  0  0  0  0  0  0
  -27.0636   -0.1189   28.6079 C   0  0  0  0  0  0  0  0  0  0  0  0
  -25.7923   -0.4302   29.0761 C   0  0  0  0  0  0  0  0  0  0  0  0
  -24.5456    0.3494   28.8225 C   0  0  0  0  0  0  0  0  0  0  0  0
  -24.6586    1.4196   27.8878 C   0  0  0  0  0  0  0  0  0  0  0  0
  -25.9471    1.6811   27.3792 C   0  0  0  0  0  0  0  0  0  0  0  0
  -27.0439    0.9739   27.6871 C   0  0  0  0  0  0  0  0  0  0  0  0
  -29.1797   -0.1202   29.1288 N   0  0  0  0  0  0  0  0  0  0  0  0
  -30.2095   -0.7652   29.7428 C   0  0  0  0  0  0  0  0  0  0  0  0
  -23.4456    2.1545   27.6087 C   0  0  0  0  0  0  0  0  0  0  0  0
  -23.6279    3.2478   27.0631 F   0  0  0  0  0  0  0  0  0  0  0  0
  -22.6586    2.3982   28.6864 F   0  0  0  0  0  0  0  0  0  0  0  0
  -22.5551    1.4845   26.8000 F   0  0  0  0  0  0  0  0  0  0  0  0
  -31.4993   -0.5175   29.3605 C   0  0  0  0  0  0  0  0  0  0  0  0
  -29.9793   -1.7020   30.8395 C   0  0  0  0  0  0  0  0  0  0  0  0
  -31.0497   -2.4293   31.4170 C   0  0  0  0  0  0  0  0  0  0  0  0
  -32.5696   -1.2552   29.9984 C   0  0  0  0  0  0  0  0  0  0  0  0
  -32.3125   -2.1280   31.0194 C   0  0  0  0  0  0  0  0  0  0  0  0
  -29.4248    1.1545   28.6775 C   0  0  0  0  0  0  0  0  0  0  0  0
  -28.2367    1.7661   27.9309 C   0  0  0  0  0  0  0  0  0  0  0  0
  -33.9514   -0.9661   29.5722 C   0  0  0  0  0  0  0  0  0  0  0  0
  -34.4686    0.0520   29.6684 O   0  0  0  0  0  0  0  0  0  0  0  0
  -34.3570   -1.9213   28.6041 O   0  0  0  0  0  0  0  0  0  0  0  0
  -25.5175   -1.5838   29.9934 C   0  0  0  0  0  0  0  0  0  0  0  0
  -24.3636   -2.2208   29.8798 C   0  0  0  0  0  0  0  0  0  0  0  0
  -26.5650   -2.0429   30.8068 C   0  0  0  0  0  0  0  0  0  0  0  0
  -28.5161    3.0289   27.2480 C   0  0  0  0  0  0  0  0  0  0  0  0
  1  2  1  0
  1  8  1  0
  8  9  1  0
  5 10  1  0
 10 11  1  0
 10 12  1  0
 10 13  1  0
  8 19  1  0
  7 20  1  0
 17 21  1  0
 21 22  2  0
 21 23  1  0
  3 24  1  0
 24 25  2  0
 24 26  1  0
 20 27  1  0
 20 19  1  0
  2  3  2  0
  3  4  1  0
  4  5  2  0
  5  6  1  0
  6  7  2  0
  7  2  1  0
  9 14  2  0
 14 17  1  0
 17 18  2  0
 18 16  1  0
 16 15  2  0
 15  9  1  0
M  END

$$$$
