No_3425-gen_results/8p0m/2024-11-27-11-27-31/
     RDKit          3D

 35 39  0  0  0  0  0  0  0  0999 V2000
  -28.0162   -0.8135   28.8779 C   0  0  0  0  0  0  0  0  0  0  0  0
  -28.4690   -0.7850   29.8287 C   0  0  0  0  0  0  0  0  0  0  0  0
  -27.1356    0.2359   28.5352 C   0  0  0  0  0  0  0  0  0  0  0  0
  -26.8745    1.2825   29.3982 C   0  0  0  0  0  0  0  0  0  0  0  0
  -28.3613    0.1987   30.9244 C   0  0  0  0  0  0  0  0  0  0  0  0
  -27.5277    1.2234   30.6356 C   0  0  0  0  0  0  0  0  0  0  0  0
  -26.3987    0.2949   27.2279 C   0  0  0  0  0  0  0  0  0  0  0  0
  -25.0392    0.2356   27.3538 C   0  0  0  0  0  0  0  0  0  0  0  0
  -27.0287    0.3958   26.0087 C   0  0  0  0  0  0  0  0  0  0  0  0
  -28.3713    0.5360   25.8782 C   0  0  0  0  0  0  0  0  0  0  0  0
  -28.8860    0.5072   24.5687 C   0  0  0  0  0  0  0  0  0  0  0  0
  -30.2841    0.5712   24.3900 C   0  0  0  0  0  0  0  0  0  0  0  0
  -30.8318    0.4670   23.2694 C   0  0  0  0  0  0  0  0  0  0  0  0
  -32.2913    0.4810   23.1622 C   0  0  0  0  0  0  0  0  0  0  0  0
  -33.0791    0.7124   24.2845 C   0  0  0  0  0  0  0  0  0  0  0  0
  -31.2223    0.7789   25.4286 C   0  0  0  0  0  0  0  0  0  0  0  0
  -32.4799    0.8626   25.4004 C   0  0  0  0  0  0  0  0  0  0  0  0
  -26.2328    0.3000   24.8522 C   0  0  0  0  0  0  0  0  0  0  0  0
  -24.3857   -0.4876   28.3649 C   0  0  0  0  0  0  0  0  0  0  0  0
  -23.0901   -0.1956   28.8054 C   0  0  0  0  0  0  0  0  0  0  0  0
  -22.4974   -0.9553   29.8359 C   0  0  0  0  0  0  0  0  0  0  0  0
  -23.2940   -1.8719   30.5266 C   0  0  0  0  0  0  0  0  0  0  0  0
  -24.6434   -2.0978   30.1650 C   0  0  0  0  0  0  0  0  0  0  0  0
  -25.1652   -1.3508   29.1292 C   0  0  0  0  0  0  0  0  0  0  0  0
  -28.0599    0.3458   23.4726 C   0  0  0  0  0  0  0  0  0  0  0  0
  -26.7004    0.2758   23.6679 N   0  0  0  0  0  0  0  0  0  0  0  0
  -25.9707    2.4112   29.1785 C   0  0  0  0  0  0  0  0  0  0  0  0
  -25.9454    3.2094   28.5225 C   0  0  0  0  0  0  0  0  0  0  0  0
  -25.0227    4.2893   28.3421 C   0  0  0  0  0  0  0  0  0  0  0  0
  -24.8387    2.4579   30.2140 C   0  0  0  0  0  0  0  0  0  0  0  0
  -24.5558    2.3120   31.2205 C   0  0  0  0  0  0  0  0  0  0  0  0
  -25.1311    5.1471   27.2400 C   0  0  0  0  0  0  0  0  0  0  0  0
  -26.9691    3.5039   27.3887 C   0  0  0  0  0  0  0  0  0  0  0  0
  -28.2783    3.0882   27.5791 C   0  0  0  0  0  0  0  0  0  0  0  0
  -26.6647    4.9919   26.8803 C   0  0  0  0  0  0  0  0  0  0  0  0
  3  7  1  0
  7  8  1  0
  7  9  1  0
 11 12  1  0
  8 19  1  0
  4 27  1  0
 27 28  2  3
 28 29  1  0
 27 30  1  0
 30 31  3  0
 29 32  2  0
 28 33  1  0
 33 34  1  0
 32 35  1  0
 33 35  1  0
 12 13  2  0
 13 14  1  0
 14 15  2  0
 15 17  1  0
 17 16  2  0
 16 12  1  0
  9 10  2  0
 10 11  1  0
 11 25  2  0
 25 26  1  0
 26 18  2  0
 18  9  1  0
  1  2  2  0
  2  5  1  0
  5  6  2  0
  6  4  1  0
  4  3  2  0
  3  1  1  0
 19 20  2  0
 20 21  1  0
 21 22  2  0
 22 23  1  0
 23 24  2  0
 24 19  1  0
M  END

$$$$
