No_3356-gen_results/8p0m/2024-11-27-11-27-31/
     RDKit          3D

 16 16  0  0  0  0  0  0  0  0999 V2000
  -28.0162   -0.8135   28.8779 C   0  0  0  0  0  0  0  0  0  0  0  0
  -27.0636   -0.1189   28.6079 C   0  0  0  0  0  0  0  0  0  0  0  0
  -27.0425    0.2440   27.4277 F   0  0  0  0  0  0  0  0  0  0  0  0
  -28.4881   -0.4683   30.1200 O   0  0  0  0  0  0  0  0  0  0  0  0
  -25.8213   -0.8540   28.7232 F   0  0  0  0  0  0  0  0  0  0  0  0
  -26.7329    0.9552   29.3532 F   0  0  0  0  0  0  0  0  0  0  0  0
  -29.7437   -0.1405   30.3634 C   0  0  0  0  0  0  0  0  0  0  0  0
  -30.2885   -0.9151   31.1651 C   0  0  0  0  0  0  0  0  0  0  0  0
  -31.3444   -1.1996   31.3039 C   0  0  0  0  0  0  0  0  0  0  0  0
  -32.0219   -2.1617   32.2933 C   0  0  0  0  0  0  0  0  0  0  0  0
  -31.1190   -2.8007   33.1681 C   0  0  0  0  0  0  0  0  0  0  0  0
  -29.7594   -2.5848   33.0610 C   0  0  0  0  0  0  0  0  0  0  0  0
  -29.3196   -1.7341   32.1653 C   0  0  0  0  0  0  0  0  0  0  0  0
  -27.6571   -2.1409   29.1239 F   0  0  0  0  0  0  0  0  0  0  0  0
  -30.3280   -0.0579   29.1782 F   0  0  0  0  0  0  0  0  0  0  0  0
  -29.6693    1.3246   30.9435 C   0  0  0  0  0  0  0  0  0  0  0  0
  1  2  1  0
  2  3  1  0
  1  4  1  0
  2  5  1  0
  2  6  1  0
  4  7  1  0
  7  8  1  0
  1 14  1  0
  7 15  1  0
  7 16  1  0
  8  9  2  0
  9 10  1  0
 10 11  2  0
 11 12  1  0
 12 13  2  0
 13  8  1  0
M  END

$$$$
