No_3269-gen_results/8p0m/2024-11-27-11-27-31/
     RDKit          3D

 12 12  0  0  0  0  0  0  0  0999 V2000
  -28.0162   -0.8135   28.8779 C   0  0  0  0  0  0  0  0  0  0  0  0
  -28.4690   -0.7850   29.8287 C   0  0  0  0  0  0  0  0  0  0  0  0
  -27.1356    0.2359   28.5352 C   0  0  0  0  0  0  0  0  0  0  0  0
  -26.8745    1.2825   29.3982 C   0  0  0  0  0  0  0  0  0  0  0  0
  -27.5070    1.2380   30.6295 C   0  0  0  0  0  0  0  0  0  0  0  0
  -28.3269    0.1637   30.9240 C   0  0  0  0  0  0  0  0  0  0  0  0
  -26.3104    0.2929   27.0158 Cl  0  0  0  0  0  0  0  0  0  0  0  0
  -25.7874    2.6286   29.0254 P   0  0  0  0  0  0  0  0  0  0  0  0
  -26.1944    3.5280   28.0931 O   0  0  0  0  0  0  0  0  0  0  0  0
  -24.4184    1.9007   28.5836 O   0  0  0  0  0  0  0  0  0  0  0  0
  -25.4281    3.3216   30.4169 O   0  0  0  0  0  0  0  0  0  0  0  0
  -23.7016    0.7957   29.3562 Cl  0  0  0  0  0  0  0  0  0  0  0  0
  3  7  1  0
  4  8  1  0
  8  9  2  0
  8 10  1  0
  8 11  1  0
 10 12  1  0
  1  2  2  0
  2  6  1  0
  6  5  2  0
  5  4  1  0
  4  3  2  0
  3  1  1  0
M  END

$$$$
