No_3137-gen_results/8p0m/2024-11-27-11-27-31/
     RDKit          3D

 21 23  0  0  0  0  0  0  0  0999 V2000
  -28.0162   -0.8135   28.8779 C   0  0  0  0  0  0  0  0  0  0  0  0
  -27.0636   -0.1190   28.6079 C   0  0  0  0  0  0  0  0  0  0  0  0
  -25.7647   -0.3897   29.0360 C   0  0  0  0  0  0  0  0  0  0  0  0
  -24.5516    0.4058   28.7646 C   0  0  0  0  0  0  0  0  0  0  0  0
  -23.2300    0.1178   29.2575 C   0  0  0  0  0  0  0  0  0  0  0  0
  -27.8275   -1.9081   29.8661 C   0  0  0  0  0  0  0  0  0  0  0  0
  -26.5727   -2.3160   30.2643 C   0  0  0  0  0  0  0  0  0  0  0  0
  -25.4305   -1.5200   29.9226 C   0  0  0  0  0  0  0  0  0  0  0  0
  -22.1663    0.9203   28.8711 C   0  0  0  0  0  0  0  0  0  0  0  0
  -22.3084    1.9228   27.8218 C   0  0  0  0  0  0  0  0  0  0  0  0
  -24.5419    1.4507   27.7567 C   0  0  0  0  0  0  0  0  0  0  0  0
  -23.4992    2.1324   27.3338 C   0  0  0  0  0  0  0  0  0  0  0  0
  -28.9762   -2.7617   30.2734 C   0  0  0  0  0  0  0  0  0  0  0  0
  -28.8592   -3.9705   30.2882 O   0  0  0  0  0  0  0  0  0  0  0  0
  -30.1012   -2.1785   30.6546 N   0  0  0  0  0  0  0  0  0  0  0  0
  -30.3335   -0.7600   30.7430 C   0  0  0  0  0  0  0  0  0  0  0  0
  -31.3076   -0.2025   30.8172 C   0  0  0  0  0  0  0  0  0  0  0  0
  -32.5101   -0.8114   31.1028 C   0  0  0  0  0  0  0  0  0  0  0  0
  -32.4021   -2.2533   31.1147 C   0  0  0  0  0  0  0  0  0  0  0  0
  -31.2526   -2.8781   30.8720 C   0  0  0  0  0  0  0  0  0  0  0  0
  -23.6585    3.0623   26.3859 F   0  0  0  0  0  0  0  0  0  0  0  0
  3  4  1  0
  6 13  1  0
 13 14  2  0
 13 15  1  0
 15 16  1  0
 17 18  1  0
 15 20  1  0
 19 20  1  0
 12 21  1  0
 16 17  1  0
 18 19  1  0
  1  2  2  0
  2  3  1  0
  3  8  2  0
  8  7  1  0
  7  6  2  0
  6  1  1  0
  4  5  2  0
  5  9  1  0
  9 10  2  0
 10 12  1  0
 12 11  2  0
 11  4  1  0
M  END

$$$$
