No_3443-gen_results/8p0m/2024-11-27-11-27-31/
     RDKit          3D

 12 12  0  0  0  0  0  0  0  0999 V2000
  -28.1229   -1.3353   28.4874 O   0  0  0  0  0  0  0  0  0  0  0  0
  -27.4806   -0.4044   28.7094 C   0  0  0  0  0  0  0  0  0  0  0  0
  -27.1904    0.2461   29.5268 C   0  0  0  0  0  0  0  0  0  0  0  0
  -26.6021   -0.1576   27.5515 N   0  0  0  0  0  0  0  0  0  0  0  0
  -25.6421    0.9031   27.5822 C   0  0  0  0  0  0  0  0  0  0  0  0
  -25.5003    1.6142   28.7368 C   0  0  0  0  0  0  0  0  0  0  0  0
  -26.2553    1.3158   29.8133 C   0  0  0  0  0  0  0  0  0  0  0  0
  -24.9218    1.1203   26.5235 F   0  0  0  0  0  0  0  0  0  0  0  0
  -28.0240   -0.0598   30.9337 C   0  0  0  0  0  0  0  0  0  0  0  0
  -27.5282   -0.2633   31.9418 C   0  0  0  0  0  0  0  0  0  0  0  0
  -26.1699   -0.1337   32.1668 C   0  0  0  0  0  0  0  0  0  0  0  0
  -25.2058    0.7465   31.8628 C   0  0  0  0  0  0  0  0  0  0  0  0
  1  2  2  0
  2  3  1  0
  2  4  1  0
  4  5  1  0
  5  6  1  0
  5  8  1  0
  3  9  1  0
  9 10  1  0
 10 11  1  0
 11 12  2  0
  3  7  1  0
  7  6  1  0
M  END

$$$$
