No_3881-gen_results/8p0m/2024-11-27-11-27-31/
     RDKit          3D

 21 24  0  0  0  0  0  0  0  0999 V2000
  -28.0162   -0.8135   28.8779 C   0  0  0  0  0  0  0  0  0  0  0  0
  -27.0636   -0.1190   28.6079 C   0  0  0  0  0  0  0  0  0  0  0  0
  -25.7647   -0.3897   29.0360 C   0  0  0  0  0  0  0  0  0  0  0  0
  -24.5516    0.4058   28.7646 C   0  0  0  0  0  0  0  0  0  0  0  0
  -24.6957    1.4480   27.7988 C   0  0  0  0  0  0  0  0  0  0  0  0
  -26.0010    1.6784   27.2965 C   0  0  0  0  0  0  0  0  0  0  0  0
  -27.0736    0.9682   27.6500 C   0  0  0  0  0  0  0  0  0  0  0  0
  -29.2650   -0.1181   29.1802 C   0  0  0  0  0  0  0  0  0  0  0  0
  -30.1668   -0.6809   30.0078 C   0  0  0  0  0  0  0  0  0  0  0  0
  -29.9568   -2.0454   30.4479 C   0  0  0  0  0  0  0  0  0  0  0  0
  -28.7397   -2.6436   30.3241 C   0  0  0  0  0  0  0  0  0  0  0  0
  -27.7388   -1.9650   29.7536 C   0  0  0  0  0  0  0  0  0  0  0  0
  -26.3715   -2.4647   29.7939 C   0  0  0  0  0  0  0  0  0  0  0  0
  -25.4333   -1.6183   29.7026 C   0  0  0  0  0  0  0  0  0  0  0  0
  -23.1910    0.0788   29.2007 C   0  0  0  0  0  0  0  0  0  0  0  0
  -22.8024   -1.0363   29.8006 C   0  0  0  0  0  0  0  0  0  0  0  0
  -23.9712   -1.9376   30.1513 C   0  0  0  0  0  0  0  0  0  0  0  0
  -30.9899   -2.6338   31.1374 O   0  0  0  0  0  0  0  0  0  0  0  0
  -22.0766    1.0388   28.7576 C   0  0  0  0  0  0  0  0  0  0  0  0
  -21.0205    0.9747   29.1582 O   0  0  0  0  0  0  0  0  0  0  0  0
  -22.4109    2.0485   27.9882 O   0  0  0  0  0  0  0  0  0  0  0  0
  1  2  2  0
  2  3  1  0
  3  4  1  0
  4  5  2  0
  5  6  1  0
  2  7  1  0
  6  7  2  0
  1  8  1  0
  8  9  2  0
  9 10  1  0
 10 11  2  0
  1 12  1  0
 11 12  1  0
 12 13  1  0
  3 14  1  0
 13 14  2  0
  4 15  1  0
 15 16  2  0
 14 17  1  0
 16 17  1  0
 10 18  1  0
 15 19  1  0
 19 20  1  0
 19 21  2  0
M  END

$$$$
