No_3304-gen_results/8p0m/2024-11-27-11-27-31/
     RDKit          3D

 27 29  0  0  0  0  0  0  0  0999 V2000
  -28.0162   -0.8135   28.8779 C   0  0  0  0  0  0  0  0  0  0  0  0
  -27.0636   -0.1189   28.6079 C   0  0  0  0  0  0  0  0  0  0  0  0
  -25.7647   -0.3897   29.0360 C   0  0  0  0  0  0  0  0  0  0  0  0
  -24.5517    0.4058   28.7646 C   0  0  0  0  0  0  0  0  0  0  0  0
  -24.6957    1.4480   27.7988 C   0  0  0  0  0  0  0  0  0  0  0  0
  -25.9755    1.7250   27.3077 C   0  0  0  0  0  0  0  0  0  0  0  0
  -27.0718    1.0134   27.6535 C   0  0  0  0  0  0  0  0  0  0  0  0
  -28.6178   -0.4695   30.2207 C   0  0  0  0  0  0  0  0  0  0  0  0
  -29.7296   -1.2768   30.7206 C   0  0  0  0  0  0  0  0  0  0  0  0
  -23.4863    2.1902   27.4840 C   0  0  0  0  0  0  0  0  0  0  0  0
  -23.5550    3.1770   26.6757 N   0  0  0  0  0  0  0  0  0  0  0  0
  -22.3134    1.8444   27.8619 O   0  0  0  0  0  0  0  0  0  0  0  0
  -28.0821    0.4768   31.0989 C   0  0  0  0  0  0  0  0  0  0  0  0
  -28.5555    0.6729   32.3227 C   0  0  0  0  0  0  0  0  0  0  0  0
  -30.2456   -1.0017   32.0292 C   0  0  0  0  0  0  0  0  0  0  0  0
  -29.6521   -0.0291   32.8352 C   0  0  0  0  0  0  0  0  0  0  0  0
  -28.4140    1.3676   27.0998 C   0  0  0  0  0  0  0  0  0  0  0  0
  -28.5571    1.8603   26.1681 O   0  0  0  0  0  0  0  0  0  0  0  0
  -29.4163    1.1668   27.9077 O   0  0  0  0  0  0  0  0  0  0  0  0
  -25.4491   -1.4651   30.0217 C   0  0  0  0  0  0  0  0  0  0  0  0
  -24.2804   -2.0542   30.0566 C   0  0  0  0  0  0  0  0  0  0  0  0
  -23.4313   -2.1474   29.3112 C   0  0  0  0  0  0  0  0  0  0  0  0
  -22.5521   -1.0100   28.8524 C   0  0  0  0  0  0  0  0  0  0  0  0
  -23.2323    0.1203   28.3103 C   0  0  0  0  0  0  0  0  0  0  0  0
  -22.5679    0.5461   27.5625 C   0  0  0  0  0  0  0  0  0  0  0  0
  -21.1186    0.2206   27.8758 O   0  0  0  0  0  0  0  0  0  0  0  0
  -22.8013    0.3386   26.3420 O   0  0  0  0  0  0  0  0  0  0  0  0
  1  8  1  0
  5 10  1  0
 10 11  1  0
 10 12  2  0
  7 17  1  0
 17 18  2  0
 17 19  1  0
  3 20  1  0
 20 21  2  0
 21 22  1  0
 22 23  1  0
  4 24  1  0
 23 24  1  0
 24 25  1  0
 25 26  1  0
 25 27  2  0
  1  2  1  0
  2  3  2  0
  3  4  1  0
  4  5  2  0
  5  6  1  0
  6  7  2  0
  7  2  1  0
  8  9  2  0
  9 15  1  0
 15 16  2  0
 16 14  1  0
 14 13  2  0
 13  8  1  0
M  END

$$$$
