No_3759-gen_results/8p0m/2024-11-27-11-27-31/
     RDKit          3D

 18 19  0  0  0  0  0  0  0  0999 V2000
  -28.1493   -0.8198   28.9079 Cl  0  0  0  0  0  0  0  0  0  0  0  0
  -26.9116   -0.0797   28.9452 C   0  0  0  0  0  0  0  0  0  0  0  0
  -26.7384    1.0439   29.2534 C   0  0  0  0  0  0  0  0  0  0  0  0
  -25.4392    1.7115   29.2755 C   0  0  0  0  0  0  0  0  0  0  0  0
  -24.2812    0.9888   28.8542 C   0  0  0  0  0  0  0  0  0  0  0  0
  -24.4869   -0.3041   28.4957 C   0  0  0  0  0  0  0  0  0  0  0  0
  -25.7046   -0.8667   28.5244 C   0  0  0  0  0  0  0  0  0  0  0  0
  -22.9690    1.6346   28.7977 C   0  0  0  0  0  0  0  0  0  0  0  0
  -22.7724    2.7067   28.6119 O   0  0  0  0  0  0  0  0  0  0  0  0
  -21.8913    0.7405   28.9682 N   0  0  0  0  0  0  0  0  0  0  0  0
  -21.9026   -0.6481   29.3004 C   0  0  0  0  0  0  0  0  0  0  0  0
  -23.1024   -1.2935   29.0508 C   0  0  0  0  0  0  0  0  0  0  0  0
  -27.8756    2.0463   29.4741 C   0  0  0  0  0  0  0  0  0  0  0  0
  -27.9868    3.0793   29.1869 C   0  0  0  0  0  0  0  0  0  0  0  0
  -29.1381    3.9804   29.5437 C   0  0  0  0  0  0  0  0  0  0  0  0
  -30.1989    3.3470   30.1474 C   0  0  0  0  0  0  0  0  0  0  0  0
  -30.0980    2.0367   30.4529 C   0  0  0  0  0  0  0  0  0  0  0  0
  -28.9433    1.3084   30.2250 C   0  0  0  0  0  0  0  0  0  0  0  0
  1  2  1  0
  5  8  1  0
  8  9  2  0
  8 10  1  0
 10 11  1  0
  6 12  1  0
 11 12  1  0
  3 13  1  0
 13 14  2  3
 14 15  1  0
 15 16  2  3
 16 17  1  0
 17 18  1  0
  2  3  2  0
  3  4  1  0
  4  5  2  0
  5  6  1  0
  6  7  2  0
  7  2  1  0
M  END

$$$$
