No_3662-gen_results/8p0m/2024-11-27-11-27-31/
     RDKit          3D

 35 37  0  0  0  0  0  0  0  0999 V2000
  -28.1493   -0.8198   28.9079 Cl  0  0  0  0  0  0  0  0  0  0  0  0
  -27.8339    0.4961   29.0598 C   0  0  0  0  0  0  0  0  0  0  0  0
  -27.5135    1.2383   28.0485 C   0  0  0  0  0  0  0  0  0  0  0  0
  -27.4902    0.6482   26.7008 C   0  0  0  0  0  0  0  0  0  0  0  0
  -26.9011    1.1408   25.5350 C   0  0  0  0  0  0  0  0  0  0  0  0
  -26.3688    2.4667   25.6553 C   0  0  0  0  0  0  0  0  0  0  0  0
  -26.4004    3.2111   26.8290 C   0  0  0  0  0  0  0  0  0  0  0  0
  -25.8441    4.5390   26.9364 C   0  0  0  0  0  0  0  0  0  0  0  0
  -26.9323    2.5611   28.0053 C   0  0  0  0  0  0  0  0  0  0  0  0
  -27.8344    1.2376   30.3474 C   0  0  0  0  0  0  0  0  0  0  0  0
  -27.2027    1.6528   31.0744 N   0  0  0  0  0  0  0  0  0  0  0  0
  -29.1939    1.6525   30.5822 O   0  0  0  0  0  0  0  0  0  0  0  0
  -27.2733    2.4057   32.3561 C   0  0  0  0  0  0  0  0  0  0  0  0
  -25.6572    1.2493   30.9289 C   0  0  0  0  0  0  0  0  0  0  0  0
  -25.2623    4.7586   28.0022 O   0  0  0  0  0  0  0  0  0  0  0  0
  -24.7595    2.2838   30.9683 C   0  0  0  0  0  0  0  0  0  0  0  0
  -24.7819    3.1256   32.1955 C   0  0  0  0  0  0  0  0  0  0  0  0
  -26.1881    3.4445   32.6135 C   0  0  0  0  0  0  0  0  0  0  0  0
  -26.4098    4.4982   33.5901 C   0  0  0  0  0  0  0  0  0  0  0  0
  -27.2275    4.4250   34.4773 C   0  0  0  0  0  0  0  0  0  0  0  0
  -27.4940    5.5499   35.3833 C   0  0  0  0  0  0  0  0  0  0  0  0
  -25.5819    5.7028   33.4121 C   0  0  0  0  0  0  0  0  0  0  0  0
  -25.7946    6.8091   34.2234 C   0  0  0  0  0  0  0  0  0  0  0  0
  -26.7355    6.7267   35.2366 C   0  0  0  0  0  0  0  0  0  0  0  0
  -25.7660    5.2801   25.9420 O   0  0  0  0  0  0  0  0  0  0  0  0
  -26.9646    0.5037   24.3483 C   0  0  0  0  0  0  0  0  0  0  0  0
  -27.0133    8.0694   36.2742 Cl  0  0  0  0  0  0  0  0  0  0  0  0
  -28.2410   -0.1943   24.0720 C   0  0  0  0  0  0  0  0  0  0  0  0
  -29.1103    0.5095   23.7774 F   0  0  0  0  0  0  0  0  0  0  0  0
  -28.0177   -1.2039   23.1741 F   0  0  0  0  0  0  0  0  0  0  0  0
  -28.8423   -0.7851   25.1354 F   0  0  0  0  0  0  0  0  0  0  0  0
  -23.3954    1.8138   30.8382 O   0  0  0  0  0  0  0  0  0  0  0  0
  -23.1210    1.4217   29.5181 C   0  0  0  0  0  0  0  0  0  0  0  0
  -23.4250    1.8008   28.5642 C   0  0  0  0  0  0  0  0  0  0  0  0
  -22.9293    1.3788   27.2525 C   0  0  0  0  0  0  0  0  0  0  0  0
  1  2  1  0
  7  8  1  0
  2 10  1  0
 10 11  1  0
 10 12  2  0
 11 13  1  0
 11 14  1  0
  8 15  2  0
 16 17  1  0
 13 18  1  0
 17 18  1  0
 18 19  1  0
  8 25  1  0
  5 26  1  0
 24 27  1  0
 26 28  1  0
 28 29  1  0
 28 30  1  0
 28 31  1  0
 16 32  1  0
 32 33  1  0
 33 34  2  3
 34 35  1  0
  2  3  1  0
 16 14  1  0
 19 20  2  0
 20 21  1  0
 21 24  2  0
 24 23  1  0
 23 22  2  0
 22 19  1  0
  3  4  2  0
  4  5  1  0
  5  6  2  0
  6  7  1  0
  7  9  2  0
  9  3  1  0
M  END

$$$$
