No_313-gen_results/8p0m/2024-11-27-11-27-31/
     RDKit          3D

 11 12  0  0  0  0  0  0  0  0999 V2000
  -28.1229   -1.3353   28.4874 O   0  0  0  0  0  0  0  0  0  0  0  0
  -27.0637   -0.8242   28.8687 C   0  0  0  0  0  0  0  0  0  0  0  0
  -25.9464   -1.0396   28.8492 C   0  0  0  0  0  0  0  0  0  0  0  0
  -24.7602   -0.1562   29.1644 C   0  0  0  0  0  0  0  0  0  0  0  0
  -23.3890   -0.4551   29.0162 C   0  0  0  0  0  0  0  0  0  0  0  0
  -27.3395    0.3833   29.7633 N   0  0  0  0  0  0  0  0  0  0  0  0
  -26.4205    1.2770   30.1889 C   0  0  0  0  0  0  0  0  0  0  0  0
  -25.0644    1.0553   29.9319 C   0  0  0  0  0  0  0  0  0  0  0  0
  -22.5196    0.5596   28.4465 C   0  0  0  0  0  0  0  0  0  0  0  0
  -22.8680    1.8572   28.4953 C   0  0  0  0  0  0  0  0  0  0  0  0
  -24.1658    2.2224   29.1730 C   0  0  0  0  0  0  0  0  0  0  0  0
  1  2  2  0
  2  3  1  0
  3  4  1  0
  4  5  1  0
  2  6  1  0
  4  8  1  0
  7  8  1  0
  5  9  3  0
  9 10  1  0
  8 11  1  0
 10 11  1  0
  7  6  1  0
M  END

$$$$
