No_311-gen_results/8p0m/2024-11-27-11-27-31/
     RDKit          3D

 16 18  0  0  0  0  0  0  0  0999 V2000
  -28.1229   -1.3353   28.4874 O   0  0  0  0  0  0  0  0  0  0  0  0
  -27.0637   -0.8242   28.8687 C   0  0  0  0  0  0  0  0  0  0  0  0
  -26.4017   -0.0623   28.6224 C   0  0  0  0  0  0  0  0  0  0  0  0
  -26.2652   -1.8674   29.7609 N   0  0  0  0  0  0  0  0  0  0  0  0
  -26.8442    1.1343   27.8798 C   0  0  0  0  0  0  0  0  0  0  0  0
  -25.0005   -1.6707   30.1794 C   0  0  0  0  0  0  0  0  0  0  0  0
  -24.9962    0.1972   29.1990 C   0  0  0  0  0  0  0  0  0  0  0  0
  -24.3722   -0.5669   29.9374 C   0  0  0  0  0  0  0  0  0  0  0  0
  -27.6458    1.2063   27.2674 N   0  0  0  0  0  0  0  0  0  0  0  0
  -28.0277    2.2513   26.4322 C   0  0  0  0  0  0  0  0  0  0  0  0
  -25.8211    2.1185   27.4816 C   0  0  0  0  0  0  0  0  0  0  0  0
  -24.4286    2.2101   28.0705 C   0  0  0  0  0  0  0  0  0  0  0  0
  -24.1283    1.3840   28.8119 C   0  0  0  0  0  0  0  0  0  0  0  0
  -26.3935    3.1554   26.6195 C   0  0  0  0  0  0  0  0  0  0  0  0
  -22.7505    1.3687   29.4470 C   0  0  0  0  0  0  0  0  0  0  0  0
  -22.2846    0.5671   30.3125 O   0  0  0  0  0  0  0  0  0  0  0  0
  1  2  2  0
  2  3  1  0
  2  4  1  0
  6  8  1  0
  5  9  1  0
  9 10  1  0
 10 14  1  0
 11 14  1  0
 13 15  1  0
 15 16  2  0
  7  8  1  0
  6  4  1  0
  3  5  2  0
  5 11  1  0
 11 12  2  0
 12 13  1  0
 13  7  2  0
  7  3  1  0
M  END

$$$$
