No_3006-gen_results/8p0m/2024-11-27-11-27-31/
     RDKit          3D

 16 18  0  0  0  0  0  0  0  0999 V2000
  -28.0162   -0.8135   28.8779 C   0  0  0  0  0  0  0  0  0  0  0  0
  -28.4690   -0.7850   29.8287 C   0  0  0  0  0  0  0  0  0  0  0  0
  -28.1960    0.3478   28.0550 C   0  0  0  0  0  0  0  0  0  0  0  0
  -29.0191    1.3501   28.3782 C   0  0  0  0  0  0  0  0  0  0  0  0
  -29.4107    0.1803   30.3782 C   0  0  0  0  0  0  0  0  0  0  0  0
  -29.6059    1.2495   29.6193 C   0  0  0  0  0  0  0  0  0  0  0  0
  -27.5400    0.3372   26.8421 F   0  0  0  0  0  0  0  0  0  0  0  0
  -30.0196   -0.0247   31.7541 C   0  0  0  0  0  0  0  0  0  0  0  0
  -30.1626   -1.0366   32.3138 C   0  0  0  0  0  0  0  0  0  0  0  0
  -30.8966   -1.1491   33.5527 C   0  0  0  0  0  0  0  0  0  0  0  0
  -31.0382   -2.3417   34.2682 C   0  0  0  0  0  0  0  0  0  0  0  0
  -30.4364   -3.4981   33.7148 C   0  0  0  0  0  0  0  0  0  0  0  0
  -29.7186   -3.4915   32.5412 C   0  0  0  0  0  0  0  0  0  0  0  0
  -29.5339   -2.2760   31.8779 C   0  0  0  0  0  0  0  0  0  0  0  0
  -28.5063   -2.1544   30.7542 C   0  0  0  0  0  0  0  0  0  0  0  0
  -27.7715   -3.0934   30.4412 O   0  0  0  0  0  0  0  0  0  0  0  0
  3  7  1  0
  5  8  1  0
  2 15  1  0
 14 15  1  0
 15 16  2  0
  8  9  1  0
  9 10  2  0
 10 11  1  0
 11 12  2  0
 12 13  1  0
 13 14  2  0
 14  9  1  0
  1  2  2  0
  2  5  1  0
  5  6  2  0
  6  4  1  0
  4  3  2  0
  3  1  1  0
M  END

$$$$
