No_3323-gen_results/8p0m/2024-11-27-11-27-31/
     RDKit          3D

 24 26  0  0  0  0  0  0  0  0999 V2000
  -28.0162   -0.8135   28.8779 C   0  0  0  0  0  0  0  0  0  0  0  0
  -27.0636   -0.1189   28.6079 C   0  0  0  0  0  0  0  0  0  0  0  0
  -26.9287    1.1713   29.0083 C   0  0  0  0  0  0  0  0  0  0  0  0
  -27.9560    1.7411   29.7840 C   0  0  0  0  0  0  0  0  0  0  0  0
  -29.0569   -0.3271   29.7466 C   0  0  0  0  0  0  0  0  0  0  0  0
  -28.9828    0.9722   30.1516 C   0  0  0  0  0  0  0  0  0  0  0  0
  -25.8361   -0.4299   27.7492 C   0  0  0  0  0  0  0  0  0  0  0  0
  -24.7777   -1.0310   28.3896 C   0  0  0  0  0  0  0  0  0  0  0  0
  -25.3755    0.5663   26.7975 C   0  0  0  0  0  0  0  0  0  0  0  0
  -23.5395   -0.4869   28.7026 C   0  0  0  0  0  0  0  0  0  0  0  0
  -22.9901    0.4397   27.7244 C   0  0  0  0  0  0  0  0  0  0  0  0
  -24.0292    1.0826   26.9085 C   0  0  0  0  0  0  0  0  0  0  0  0
  -21.8325    0.9490   27.8831 F   0  0  0  0  0  0  0  0  0  0  0  0
  -23.6051    2.0770   26.1596 F   0  0  0  0  0  0  0  0  0  0  0  0
  -27.8701    3.0804   30.2027 O   0  0  0  0  0  0  0  0  0  0  0  0
  -27.2209    4.0127   29.9481 C   0  0  0  0  0  0  0  0  0  0  0  0
  -26.0779    4.3575   30.2919 C   0  0  0  0  0  0  0  0  0  0  0  0
  -25.5827    3.7156   31.4760 C   0  0  0  0  0  0  0  0  0  0  0  0
  -24.3011    3.8980   31.8736 N   0  0  0  0  0  0  0  0  0  0  0  0
  -28.1394    5.1527   29.6355 C   0  0  0  0  0  0  0  0  0  0  0  0
  -29.3216    5.1493   29.6132 N   0  0  0  0  0  0  0  0  0  0  0  0
  -27.4188    6.1996   28.9771 N   0  0  0  0  0  0  0  0  0  0  0  0
  -26.1099    6.4659   29.1089 C   0  0  0  0  0  0  0  0  0  0  0  0
  -25.3120    5.4809   29.7817 C   0  0  0  0  0  0  0  0  0  0  0  0
  2  7  1  0
 11 13  1  0
 12 14  1  0
  4 15  1  0
 15 16  1  0
 17 18  1  0
 18 19  2  0
 20 21  1  0
  1  2  2  0
  2  3  1  0
  3  4  2  0
  4  6  1  0
  6  5  2  0
  5  1  1  0
 16 17  2  0
 17 24  1  0
 24 23  2  0
 23 22  1  0
 22 20  2  0
 20 16  1  0
  7  8  2  0
  8 10  1  0
 10 11  2  0
 11 12  1  0
 12  9  2  0
  9  7  1  0
M  END

$$$$
