No_3248-gen_results/8p0m/2024-11-27-11-27-31/
     RDKit          3D

 18 19  0  0  0  0  0  0  0  0999 V2000
  -28.0162   -0.8135   28.8779 C   0  0  0  0  0  0  0  0  0  0  0  0
  -28.4690   -0.7850   29.8287 C   0  0  0  0  0  0  0  0  0  0  0  0
  -27.1356    0.2359   28.5352 C   0  0  0  0  0  0  0  0  0  0  0  0
  -26.8745    1.2825   29.3982 C   0  0  0  0  0  0  0  0  0  0  0  0
  -27.5070    1.2380   30.6295 C   0  0  0  0  0  0  0  0  0  0  0  0
  -28.3293    0.1745   30.9350 C   0  0  0  0  0  0  0  0  0  0  0  0
  -26.4077    0.3070   27.2259 C   0  0  0  0  0  0  0  0  0  0  0  0
  -25.7649    1.3939   26.9085 N   0  0  0  0  0  0  0  0  0  0  0  0
  -24.4695    1.3137   26.4565 C   0  0  0  0  0  0  0  0  0  0  0  0
  -23.4014    1.7606   27.2397 C   0  0  0  0  0  0  0  0  0  0  0  0
  -22.6053    1.2636   27.7805 C   0  0  0  0  0  0  0  0  0  0  0  0
  -21.3285    1.9247   28.4004 C   0  0  0  0  0  0  0  0  0  0  0  0
  -22.8267   -0.0792   28.3837 C   0  0  0  0  0  0  0  0  0  0  0  0
  -26.4816    2.5877   26.7488 C   0  0  0  0  0  0  0  0  0  0  0  0
  -26.4327   -0.6924   26.4527 O   0  0  0  0  0  0  0  0  0  0  0  0
  -21.8698   -0.6748   29.2921 C   0  0  0  0  0  0  0  0  0  0  0  0
  -20.2732    1.0478   28.3644 C   0  0  0  0  0  0  0  0  0  0  0  0
  -20.5658   -0.2363   29.1483 C   0  0  0  0  0  0  0  0  0  0  0  0
  3  7  1  0
  7  8  1  0
  8  9  1  0
  9 10  1  0
  8 14  1  0
  7 15  2  0
 10 11  1  0
  1  2  2  0
  2  6  1  0
  6  5  2  0
  5  4  1  0
  4  3  2  0
  3  1  1  0
 11 12  2  0
 12 17  1  0
 17 18  2  0
 18 16  1  0
 16 13  2  0
 13 11  1  0
M  END

$$$$
