No_3479-gen_results/8p0m/2024-11-27-11-27-31/
     RDKit          3D

 19 21  0  0  0  0  0  0  0  0999 V2000
  -28.0544   -1.0498   28.7246 N   0  0  0  0  0  0  0  0  0  0  0  0
  -26.9659   -0.4722   28.7709 C   0  0  0  0  0  0  0  0  0  0  0  0
  -25.9289   -1.0196   29.5059 C   0  0  0  0  0  0  0  0  0  0  0  0
  -24.5844   -0.4437   29.6599 C   0  0  0  0  0  0  0  0  0  0  0  0
  -23.5559   -0.9737   30.4302 C   0  0  0  0  0  0  0  0  0  0  0  0
  -22.3698   -0.2390   30.5384 C   0  0  0  0  0  0  0  0  0  0  0  0
  -22.1799    0.8353   29.5937 C   0  0  0  0  0  0  0  0  0  0  0  0
  -23.1118    1.2507   28.7770 C   0  0  0  0  0  0  0  0  0  0  0  0
  -24.3408    0.6581   28.7544 C   0  0  0  0  0  0  0  0  0  0  0  0
  -26.7011    0.7065   27.9831 C   0  0  0  0  0  0  0  0  0  0  0  0
  -25.4078    1.1912   27.8312 C   0  0  0  0  0  0  0  0  0  0  0  0
  -28.9646   -0.6654   29.7369 C   0  0  0  0  0  0  0  0  0  0  0  0
  -30.0282   -0.7815   29.9808 C   0  0  0  0  0  0  0  0  0  0  0  0
  -30.8473   -1.5181   28.9974 C   0  0  0  0  0  0  0  0  0  0  0  0
  -31.7416   -2.3965   29.3676 C   0  0  0  0  0  0  0  0  0  0  0  0
  -32.5298   -2.9381   28.4746 C   0  0  0  0  0  0  0  0  0  0  0  0
  -32.5174   -2.5063   27.0902 C   0  0  0  0  0  0  0  0  0  0  0  0
  -31.6622   -1.4674   26.7655 C   0  0  0  0  0  0  0  0  0  0  0  0
  -30.8281   -0.9549   27.7332 C   0  0  0  0  0  0  0  0  0  0  0  0
  1  2  1  0
  1 12  1  0
 12 13  2  3
 13 14  1  0
 14 15  2  0
 15 16  1  0
 16 17  2  0
 17 18  1  0
 18 19  2  0
 19 14  1  0
  2  3  2  0
  3  4  1  0
  9 11  1  0
 11 10  2  0
 10  2  1  0
  4  5  2  0
  5  6  1  0
  6  7  2  0
  7  8  1  0
  8  9  2  0
  9  4  1  0
M  END

$$$$
