No_3947-gen_results/8p0m/2024-11-27-11-27-31/
     RDKit          3D

 16 17  0  0  0  0  0  0  0  0999 V2000
  -28.0162   -0.8135   28.8779 C   0  0  0  0  0  0  0  0  0  0  0  0
  -27.0636   -0.1189   28.6079 C   0  0  0  0  0  0  0  0  0  0  0  0
  -26.9716    0.7139   27.5060 C   0  0  0  0  0  0  0  0  0  0  0  0
  -28.1053    0.7744   26.6421 C   0  0  0  0  0  0  0  0  0  0  0  0
  -29.2041    0.1179   27.0477 C   0  0  0  0  0  0  0  0  0  0  0  0
  -29.2127   -0.6088   28.1281 C   0  0  0  0  0  0  0  0  0  0  0  0
  -30.3709    0.2326   26.1381 C   0  0  0  0  0  0  0  0  0  0  0  0
  -31.2520   -0.4036   26.3042 O   0  0  0  0  0  0  0  0  0  0  0  0
  -30.3110    0.9835   25.0427 F   0  0  0  0  0  0  0  0  0  0  0  0
  -25.6686    1.4039   27.1268 C   0  0  0  0  0  0  0  0  0  0  0  0
  -24.5540    1.0515   27.8138 C   0  0  0  0  0  0  0  0  0  0  0  0
  -24.5932    0.0831   28.8407 C   0  0  0  0  0  0  0  0  0  0  0  0
  -25.7144   -0.4627   29.2694 C   0  0  0  0  0  0  0  0  0  0  0  0
  -23.2448    1.7376   27.5000 C   0  0  0  0  0  0  0  0  0  0  0  0
  -22.0812    1.3120   28.0061 N   0  0  0  0  0  0  0  0  0  0  0  0
  -23.2230    2.7083   26.5686 N   0  0  0  0  0  0  0  0  0  0  0  0
  5  7  1  0
  7  8  2  0
  7  9  1  0
 11 14  1  0
 14 15  2  0
 14 16  1  0
  3 10  1  0
 10 11  2  0
 11 12  1  0
 12 13  2  0
 13  2  1  0
  1  2  2  0
  2  3  1  0
  3  4  2  0
  4  5  1  0
  5  6  2  0
  6  1  1  0
M  END

$$$$
