No_3311-gen_results/8p0m/2024-11-27-11-27-31/
     RDKit          3D

  8  8  0  0  0  0  0  0  0  0999 V2000
  -28.0162   -0.8135   28.8779 C   0  0  0  0  0  0  0  0  0  0  0  0
  -28.4690   -0.7850   29.8287 C   0  0  0  0  0  0  0  0  0  0  0  0
  -27.0143   -1.6184   28.6838 F   0  0  0  0  0  0  0  0  0  0  0  0
  -29.6471    0.0499   30.1551 C   0  0  0  0  0  0  0  0  0  0  0  0
  -29.9936    0.9316   29.1198 C   0  0  0  0  0  0  0  0  0  0  0  0
  -29.2939    0.9017   27.9571 C   0  0  0  0  0  0  0  0  0  0  0  0
  -28.2303    0.0419   27.8206 C   0  0  0  0  0  0  0  0  0  0  0  0
  -31.2952    2.0066   29.3517 Cl  0  0  0  0  0  0  0  0  0  0  0  0
  1  3  1  0
  5  8  1  0
  1  2  2  0
  2  4  1  0
  4  5  2  0
  5  6  1  0
  6  7  2  0
  7  1  1  0
M  END

$$$$
