No_3086-gen_results/8p0m/2024-11-27-11-27-31/
     RDKit          3D

 26 28  0  0  0  0  0  0  0  0999 V2000
  -28.0727   -1.2542   28.5316 F   0  0  0  0  0  0  0  0  0  0  0  0
  -27.3591   -0.3792   28.7224 C   0  0  0  0  0  0  0  0  0  0  0  0
  -26.8100    0.1885   27.6513 C   0  0  0  0  0  0  0  0  0  0  0  0
  -25.6015    0.9529   27.6828 C   0  0  0  0  0  0  0  0  0  0  0  0
  -25.0371    1.2332   29.0000 C   0  0  0  0  0  0  0  0  0  0  0  0
  -25.6162    0.5855   30.0870 C   0  0  0  0  0  0  0  0  0  0  0  0
  -26.6061   -0.2296   29.9624 C   0  0  0  0  0  0  0  0  0  0  0  0
  -23.7078    2.2692   29.0985 Cl  0  0  0  0  0  0  0  0  0  0  0  0
  -27.2585    0.0305   26.3891 O   0  0  0  0  0  0  0  0  0  0  0  0
  -28.3091    0.7669   26.1046 C   0  0  0  0  0  0  0  0  0  0  0  0
  -28.9691    0.4136   24.9577 C   0  0  0  0  0  0  0  0  0  0  0  0
  -30.1873    1.1366   24.5981 C   0  0  0  0  0  0  0  0  0  0  0  0
  -30.4975    2.3227   25.3417 C   0  0  0  0  0  0  0  0  0  0  0  0
  -28.7685    1.9300   26.7745 C   0  0  0  0  0  0  0  0  0  0  0  0
  -29.7862    2.6685   26.4420 C   0  0  0  0  0  0  0  0  0  0  0  0
  -28.7311   -0.6195   24.2516 F   0  0  0  0  0  0  0  0  0  0  0  0
  -25.0383    1.6747   26.5412 C   0  0  0  0  0  0  0  0  0  0  0  0
  -24.8995    0.8173   31.4331 C   0  0  0  0  0  0  0  0  0  0  0  0
  -25.2024    1.9219   32.0963 C   0  0  0  0  0  0  0  0  0  0  0  0
  -26.2210    2.0563   33.1688 C   0  0  0  0  0  0  0  0  0  0  0  0
  -26.9749    0.9269   33.4089 C   0  0  0  0  0  0  0  0  0  0  0  0
  -28.0849    1.0451   34.2466 C   0  0  0  0  0  0  0  0  0  0  0  0
  -28.9288   -0.0036   34.3968 C   0  0  0  0  0  0  0  0  0  0  0  0
  -28.7156   -1.1884   33.6248 C   0  0  0  0  0  0  0  0  0  0  0  0
  -27.6505   -1.2518   32.7368 C   0  0  0  0  0  0  0  0  0  0  0  0
  -26.7408   -0.2289   32.6848 C   0  0  0  0  0  0  0  0  0  0  0  0
  1  2  1  0
  5  8  1  0
  3  9  1  0
  9 10  1  0
 11 16  1  0
  4 17  1  0
  6 18  1  0
 18 19  1  0
 19 20  2  3
 20 21  1  0
  2  3  2  0
  3  4  1  0
  4  5  2  0
  5  6  1  0
  6  7  2  0
  7  2  1  0
 10 11  2  0
 11 12  1  0
 12 13  2  0
 13 15  1  0
 15 14  2  0
 14 10  1  0
 21 22  2  0
 22 23  1  0
 23 24  2  0
 24 25  1  0
 25 26  2  0
 26 21  1  0
M  END

$$$$
