No_3984-gen_results/8p0m/2024-11-27-11-27-31/
     RDKit          3D

 27 30  0  0  0  0  0  0  0  0999 V2000
  -28.0162   -0.8135   28.8779 C   0  0  0  0  0  0  0  0  0  0  0  0
  -27.0636   -0.1189   28.6079 C   0  0  0  0  0  0  0  0  0  0  0  0
  -25.7923   -0.4302   29.0761 C   0  0  0  0  0  0  0  0  0  0  0  0
  -25.5756   -1.5654   29.9363 C   0  0  0  0  0  0  0  0  0  0  0  0
  -26.7354   -2.3004   30.2173 C   0  0  0  0  0  0  0  0  0  0  0  0
  -27.9184   -1.9537   29.7629 C   0  0  0  0  0  0  0  0  0  0  0  0
  -27.1057    1.1023   27.7593 C   0  0  0  0  0  0  0  0  0  0  0  0
  -26.7157    2.2350   27.9945 C   0  0  0  0  0  0  0  0  0  0  0  0
  -27.6806    0.8547   26.4259 C   0  0  0  0  0  0  0  0  0  0  0  0
  -26.0318    2.5935   29.1910 C   0  0  0  0  0  0  0  0  0  0  0  0
  -26.8615    3.3798   27.0755 C   0  0  0  0  0  0  0  0  0  0  0  0
  -27.4568    3.2690   25.8921 C   0  0  0  0  0  0  0  0  0  0  0  0
  -27.8759    1.9029   25.5140 C   0  0  0  0  0  0  0  0  0  0  0  0
  -26.4192    3.7135   29.9168 C   0  0  0  0  0  0  0  0  0  0  0  0
  -26.0072    3.8067   31.2751 C   0  0  0  0  0  0  0  0  0  0  0  0
  -25.0001    2.9679   31.8084 C   0  0  0  0  0  0  0  0  0  0  0  0
  -24.5847    1.8670   31.0980 C   0  0  0  0  0  0  0  0  0  0  0  0
  -25.1427    1.6534   29.8592 C   0  0  0  0  0  0  0  0  0  0  0  0
  -24.6395    0.6657   28.9720 C   0  0  0  0  0  0  0  0  0  0  0  0
  -26.3560    5.0308   32.0764 C   0  0  0  0  0  0  0  0  0  0  0  0
  -25.9313    5.2565   33.0855 O   0  0  0  0  0  0  0  0  0  0  0  0
  -27.4915    5.6529   31.6683 O   0  0  0  0  0  0  0  0  0  0  0  0
  -23.4061   -0.0305   29.6806 C   0  0  0  0  0  0  0  0  0  0  0  0
  -24.2275    0.8227   27.5674 C   0  0  0  0  0  0  0  0  0  0  0  0
  -22.2624   -0.1836   28.8805 C   0  0  0  0  0  0  0  0  0  0  0  0
  -23.3606   -0.3754   31.0467 C   0  0  0  0  0  0  0  0  0  0  0  0
  -23.8291    0.6601   31.7799 C   0  0  0  0  0  0  0  0  0  0  0  0
  2  7  1  0
  8 10  1  0
  3 19  1  0
 18 19  1  0
 15 20  1  0
 20 21  2  0
 20 22  1  0
 19 23  1  0
 19 24  1  0
 23 25  1  0
 23 26  1  0
 26 27  2  0
  1  2  2  0
  2  3  1  0
  3  4  2  0
  4  5  1  0
  5  6  2  0
  6  1  1  0
  7  8  2  0
  8 11  1  0
 11 12  2  0
 12 13  1  0
 13  9  2  0
  9  7  1  0
 10 14  2  0
 14 15  1  0
 15 16  2  0
 16 17  1  0
 17 18  2  0
 18 10  1  0
M  END

$$$$
