No_3291-gen_results/8p0m/2024-11-27-11-27-31/
     RDKit          3D

 16 17  0  0  0  0  0  0  0  0999 V2000
  -28.0162   -0.8135   28.8779 C   0  0  0  0  0  0  0  0  0  0  0  0
  -28.4690   -0.7850   29.8287 C   0  0  0  0  0  0  0  0  0  0  0  0
  -26.5455   -0.8762   28.8500 C   0  0  0  0  0  0  0  0  0  0  0  0
  -25.8041   -1.0324   30.0571 C   0  0  0  0  0  0  0  0  0  0  0  0
  -24.3697   -1.0998   30.0718 C   0  0  0  0  0  0  0  0  0  0  0  0
  -27.9902   -1.0051   31.2092 C   0  0  0  0  0  0  0  0  0  0  0  0
  -26.5616   -1.1368   31.2600 C   0  0  0  0  0  0  0  0  0  0  0  0
  -23.7226   -1.2738   30.8648 C   0  0  0  0  0  0  0  0  0  0  0  0
  -22.2171   -1.1529   30.9351 C   0  0  0  0  0  0  0  0  0  0  0  0
  -21.6532   -0.8166   29.7407 C   0  0  0  0  0  0  0  0  0  0  0  0
  -23.7628   -0.6998   28.7643 C   0  0  0  0  0  0  0  0  0  0  0  0
  -22.4218   -0.5405   28.6678 C   0  0  0  0  0  0  0  0  0  0  0  0
  -30.0830   -0.6886   29.8900 C   0  0  0  0  0  0  0  0  0  0  0  0
  -30.5127   -0.2018   28.9450 O   0  0  0  0  0  0  0  0  0  0  0  0
  -30.7736   -1.4245   30.7437 O   0  0  0  0  0  0  0  0  0  0  0  0
  -25.7576   -0.8721   27.7902 O   0  0  0  0  0  0  0  0  0  0  0  0
  1  3  1  0
  3  4  1  0
  4  5  1  0
  2  6  1  0
  4  7  1  0
  6  7  1  0
  2 13  1  0
 13 14  2  0
 13 15  1  0
  3 16  2  0
  1  2  1  0
  5  8  2  0
  8  9  1  0
  9 10  2  0
 10 12  1  0
 12 11  2  0
 11  5  1  0
M  END

$$$$
