No_3180-gen_results/8p0m/2024-11-27-11-27-31/
     RDKit          3D

 14 15  0  0  0  0  0  0  0  0999 V2000
  -28.0162   -0.8135   28.8779 C   0  0  0  0  0  0  0  0  0  0  0  0
  -27.0636   -0.1189   28.6079 C   0  0  0  0  0  0  0  0  0  0  0  0
  -26.9716    0.7139   27.5060 C   0  0  0  0  0  0  0  0  0  0  0  0
  -28.1053    0.7744   26.6421 C   0  0  0  0  0  0  0  0  0  0  0  0
  -29.2008    0.1044   27.0527 C   0  0  0  0  0  0  0  0  0  0  0  0
  -29.2096   -0.6029   28.1853 C   0  0  0  0  0  0  0  0  0  0  0  0
  -30.6688    0.1865   26.2281 Cl  0  0  0  0  0  0  0  0  0  0  0  0
  -25.5952   -0.1401   29.2121 C   0  0  0  0  0  0  0  0  0  0  0  0
  -24.6192    0.5218   28.8187 C   0  0  0  0  0  0  0  0  0  0  0  0
  -24.6892    1.3726   27.6844 C   0  0  0  0  0  0  0  0  0  0  0  0
  -25.7881    1.4374   26.9890 C   0  0  0  0  0  0  0  0  0  0  0  0
  -23.4618    2.1463   27.3030 C   0  0  0  0  0  0  0  0  0  0  0  0
  -23.3625    2.6074   26.0568 N   0  0  0  0  0  0  0  0  0  0  0  0
  -22.4454    2.2500   28.0723 O   0  0  0  0  0  0  0  0  0  0  0  0
  5  7  1  0
 10 12  1  0
 12 13  1  0
 12 14  2  0
  1  2  2  0
  3  4  2  0
  4  5  1  0
  5  6  2  0
  6  1  1  0
  2  3  1  0
  3 11  1  0
 11 10  2  0
 10  9  1  0
  9  8  2  0
  8  2  1  0
M  END

$$$$
