No_3584-gen_results/8p0m/2024-11-27-11-27-31/
     RDKit          3D

 16 18  0  0  0  0  0  0  0  0999 V2000
  -28.0162   -0.8135   28.8779 C   0  0  0  0  0  0  0  0  0  0  0  0
  -27.0636   -0.1190   28.6079 C   0  0  0  0  0  0  0  0  0  0  0  0
  -26.9716    0.7139   27.5060 C   0  0  0  0  0  0  0  0  0  0  0  0
  -28.1053    0.7744   26.6421 C   0  0  0  0  0  0  0  0  0  0  0  0
  -29.2041    0.1179   27.0477 C   0  0  0  0  0  0  0  0  0  0  0  0
  -29.2127   -0.6088   28.1281 C   0  0  0  0  0  0  0  0  0  0  0  0
  -30.2671    0.2179   26.2593 F   0  0  0  0  0  0  0  0  0  0  0  0
  -25.6932    1.4470   27.1347 C   0  0  0  0  0  0  0  0  0  0  0  0
  -24.7152    1.2940   27.7712 C   0  0  0  0  0  0  0  0  0  0  0  0
  -23.4511    2.0501   27.5412 C   0  0  0  0  0  0  0  0  0  0  0  0
  -22.2854    1.8785   28.3196 C   0  0  0  0  0  0  0  0  0  0  0  0
  -22.2313    0.8022   29.2277 C   0  0  0  0  0  0  0  0  0  0  0  0
  -23.3528   -0.0048   29.4980 C   0  0  0  0  0  0  0  0  0  0  0  0
  -24.4756    0.2240   28.7575 C   0  0  0  0  0  0  0  0  0  0  0  0
  -25.5730   -0.4521   29.1367 C   0  0  0  0  0  0  0  0  0  0  0  0
  -25.5898   -1.4630   29.9519 O   0  0  0  0  0  0  0  0  0  0  0  0
  5  7  1  0
  3  8  1  0
  2 15  1  0
 14 15  1  0
 15 16  2  0
  8  9  1  0
  1  2  2  0
  2  3  1  0
  3  4  2  0
  4  5  1  0
  5  6  2  0
  6  1  1  0
  9 10  2  0
 10 11  1  0
 11 12  2  0
 12 13  1  0
 13 14  2  0
 14  9  1  0
M  END

$$$$
