No_3839-gen_results/8p0m/2024-11-27-11-27-31/
     RDKit          3D

 30 34  0  0  0  0  0  0  0  0999 V2000
  -28.0162   -0.8135   28.8779 C   0  0  0  0  0  0  0  0  0  0  0  0
  -27.0636   -0.1189   28.6079 C   0  0  0  0  0  0  0  0  0  0  0  0
  -26.8756    1.1325   28.9134 C   0  0  0  0  0  0  0  0  0  0  0  0
  -27.9014    1.8066   29.6436 C   0  0  0  0  0  0  0  0  0  0  0  0
  -29.0458   -0.2316   29.7181 C   0  0  0  0  0  0  0  0  0  0  0  0
  -28.9402    1.0517   30.0597 C   0  0  0  0  0  0  0  0  0  0  0  0
  -25.6771   -0.6845   27.6169 Cl  0  0  0  0  0  0  0  0  0  0  0  0
  -30.0519    1.4740   30.9695 C   0  0  0  0  0  0  0  0  0  0  0  0
  -29.7973    2.6164   31.6817 C   0  0  0  0  0  0  0  0  0  0  0  0
  -28.6821    3.4569   31.1901 C   0  0  0  0  0  0  0  0  0  0  0  0
  -27.6732    3.0607   30.3716 C   0  0  0  0  0  0  0  0  0  0  0  0
  -26.5257    3.8928   30.0327 C   0  0  0  0  0  0  0  0  0  0  0  0
  -25.8422    3.7742   29.1433 O   0  0  0  0  0  0  0  0  0  0  0  0
  -26.0443    4.7209   31.1130 N   0  0  0  0  0  0  0  0  0  0  0  0
  -24.9443    5.6298   30.9053 C   0  0  0  0  0  0  0  0  0  0  0  0
  -25.3508    6.9773   31.3998 C   0  0  0  0  0  0  0  0  0  0  0  0
  -24.6274    7.3818   32.4362 C   0  0  0  0  0  0  0  0  0  0  0  0
  -24.8716    8.7067   33.0521 C   0  0  0  0  0  0  0  0  0  0  0  0
  -25.8531    9.4798   32.4170 C   0  0  0  0  0  0  0  0  0  0  0  0
  -26.2680    7.7834   30.7892 C   0  0  0  0  0  0  0  0  0  0  0  0
  -26.5132    9.0325   31.2977 C   0  0  0  0  0  0  0  0  0  0  0  0
  -26.8700    7.3450   29.7711 F   0  0  0  0  0  0  0  0  0  0  0  0
  -30.7905    3.2553   32.5380 C   0  0  0  0  0  0  0  0  0  0  0  0
  -30.8221    4.3241   32.8268 C   0  0  0  0  0  0  0  0  0  0  0  0
  -31.6908    4.9387   33.8716 C   0  0  0  0  0  0  0  0  0  0  0  0
  -31.6652    6.2932   34.2859 C   0  0  0  0  0  0  0  0  0  0  0  0
  -30.7476    7.1589   33.6123 C   0  0  0  0  0  0  0  0  0  0  0  0
  -29.8815    6.6786   32.6170 C   0  0  0  0  0  0  0  0  0  0  0  0
  -29.9028    5.3865   32.3081 C   0  0  0  0  0  0  0  0  0  0  0  0
  -28.8301    4.7904   31.4230 C   0  0  0  0  0  0  0  0  0  0  0  0
  2  7  1  0
 11 12  1  0
 12 13  2  0
 12 14  1  0
 14 15  1  0
 15 16  1  0
 20 22  1  0
 24 25  1  0
 25 26  2  0
 26 27  1  0
 27 28  2  0
 28 29  1  0
  6  8  1  0
  8  9  2  0
 10 11  2  0
 11  4  1  0
  1  2  2  0
  2  3  1  0
  3  4  2  0
  4  6  1  0
  6  5  2  0
  5  1  1  0
 16 17  2  0
 17 18  1  0
 18 19  2  0
 19 21  1  0
 21 20  2  0
 20 16  1  0
  9 10  1  0
 10 30  1  0
 30 29  2  0
 29 24  1  0
 24 23  2  0
 23  9  1  0
M  END

$$$$
