No_3288-gen_results/8p0m/2024-11-27-11-27-31/
     RDKit          3D

 14 15  0  0  0  0  0  0  0  0999 V2000
  -28.0162   -0.8135   28.8779 C   0  0  0  0  0  0  0  0  0  0  0  0
  -27.0636   -0.1189   28.6079 C   0  0  0  0  0  0  0  0  0  0  0  0
  -26.9716    0.7139   27.5060 C   0  0  0  0  0  0  0  0  0  0  0  0
  -28.1053    0.7744   26.6421 C   0  0  0  0  0  0  0  0  0  0  0  0
  -29.2008    0.1044   27.0527 C   0  0  0  0  0  0  0  0  0  0  0  0
  -29.2096   -0.6029   28.1853 C   0  0  0  0  0  0  0  0  0  0  0  0
  -30.3702    0.2264   26.1604 C   0  0  0  0  0  0  0  0  0  0  0  0
  -30.9928    1.1454   26.0580 N   0  0  0  0  0  0  0  0  0  0  0  0
  -30.4252   -0.7482   25.2700 O   0  0  0  0  0  0  0  0  0  0  0  0
  -32.0498    1.5160   25.8262 C   0  0  0  0  0  0  0  0  0  0  0  0
  -27.7609   -1.5395   30.1082 N   0  0  0  0  0  0  0  0  0  0  0  0
  -26.5219   -1.7199   30.3436 C   0  0  0  0  0  0  0  0  0  0  0  0
  -25.4809   -1.4626   29.8170 C   0  0  0  0  0  0  0  0  0  0  0  0
  -25.6247   -0.4465   29.0244 C   0  0  0  0  0  0  0  0  0  0  0  0
  5  7  1  0
  7  8  1  0
  7  9  2  0
  8 10  1  0
  2  3  2  0
  3  4  1  0
  4  5  2  0
  5  6  1  0
  6  1  2  0
  1  2  1  0
  2 14  1  0
 14 13  2  0
 13 12  1  0
 12 11  2  0
 11  1  1  0
M  END

$$$$
