No_3121-gen_results/8p0m/2024-11-27-11-27-31/
     RDKit          3D

 20 21  0  0  0  0  0  0  0  0999 V2000
  -28.0162   -0.8135   28.8779 C   0  0  0  0  0  0  0  0  0  0  0  0
  -27.0636   -0.1190   28.6079 C   0  0  0  0  0  0  0  0  0  0  0  0
  -26.9287    1.1713   29.0083 C   0  0  0  0  0  0  0  0  0  0  0  0
  -27.9560    1.7411   29.7840 C   0  0  0  0  0  0  0  0  0  0  0  0
  -29.0569   -0.3271   29.7466 C   0  0  0  0  0  0  0  0  0  0  0  0
  -28.9828    0.9722   30.1516 C   0  0  0  0  0  0  0  0  0  0  0  0
  -25.8907   -0.6263   27.7857 C   0  0  0  0  0  0  0  0  0  0  0  0
  -24.7182   -1.0610   28.6129 C   0  0  0  0  0  0  0  0  0  0  0  0
  -24.6426   -2.2493   29.0885 C   0  0  0  0  0  0  0  0  0  0  0  0
  -25.6814   -3.2133   28.9574 C   0  0  0  0  0  0  0  0  0  0  0  0
  -25.4233   -4.5857   29.3871 C   0  0  0  0  0  0  0  0  0  0  0  0
  -26.5581   -5.4056   29.4266 C   0  0  0  0  0  0  0  0  0  0  0  0
  -27.7373   -4.8130   30.0179 C   0  0  0  0  0  0  0  0  0  0  0  0
  -28.0792   -4.3936   31.0140 C   0  0  0  0  0  0  0  0  0  0  0  0
  -29.4541   -3.9722   31.4292 C   0  0  0  0  0  0  0  0  0  0  0  0
  -29.7246   -3.2439   32.5338 C   0  0  0  0  0  0  0  0  0  0  0  0
  -30.5296   -4.3620   30.5881 C   0  0  0  0  0  0  0  0  0  0  0  0
  -31.6757   -3.6150   30.5223 C   0  0  0  0  0  0  0  0  0  0  0  0
  -30.9955   -2.6085   32.6752 C   0  0  0  0  0  0  0  0  0  0  0  0
  -31.9743   -2.8471   31.6973 C   0  0  0  0  0  0  0  0  0  0  0  0
  2  7  1  0
  7  8  1  0
  8  9  2  3
  9 10  1  0
 10 11  2  3
 11 12  1  0
 12 13  1  0
 13 14  2  3
 14 15  1  0
  1  2  2  0
  2  3  1  0
  3  4  2  0
  4  6  1  0
  6  5  2  0
  5  1  1  0
 15 16  2  0
 16 19  1  0
 19 20  2  0
 20 18  1  0
 18 17  2  0
 17 15  1  0
M  END

$$$$
