No_3991-gen_results/8p0m/2024-11-27-11-27-31/
     RDKit          3D

  5  4  0  0  0  0  0  0  0  0999 V2000
  -28.1146   -0.6256   29.0813 Br  0  0  0  0  0  0  0  0  0  0  0  0
  -28.0686    0.2105   30.1716 C   0  0  0  0  0  0  0  0  0  0  0  0
  -27.5204    1.4889   30.0130 C   0  0  0  0  0  0  0  0  0  0  0  0
  -27.0126    1.9017   28.7903 C   0  0  0  0  0  0  0  0  0  0  0  0
  -27.0425    0.9968   27.7109 C   0  0  0  0  0  0  0  0  0  0  0  0
  1  2  1  0
  2  3  2  3
  3  4  1  0
  4  5  1  0
M  END

$$$$
