No_3170-gen_results/8p0m/2024-11-27-11-27-31/
     RDKit          3D

 23 26  0  0  0  0  0  0  0  0999 V2000
  -28.0162   -0.8135   28.8779 C   0  0  0  0  0  0  0  0  0  0  0  0
  -28.4690   -0.7850   29.8287 C   0  0  0  0  0  0  0  0  0  0  0  0
  -28.1960    0.3478   28.0550 C   0  0  0  0  0  0  0  0  0  0  0  0
  -29.0191    1.3501   28.3782 C   0  0  0  0  0  0  0  0  0  0  0  0
  -29.6249    1.2683   29.6012 C   0  0  0  0  0  0  0  0  0  0  0  0
  -30.5243    2.3147   30.0648 C   0  0  0  0  0  0  0  0  0  0  0  0
  -29.3399    0.1476   30.4094 C   0  0  0  0  0  0  0  0  0  0  0  0
  -30.2027    2.8884   31.0950 N   0  0  0  0  0  0  0  0  0  0  0  0
  -30.8645    3.8628   31.6946 C   0  0  0  0  0  0  0  0  0  0  0  0
  -31.6645    2.5252   29.3207 C   0  0  0  0  0  0  0  0  0  0  0  0
  -32.4726    3.6055   29.8659 C   0  0  0  0  0  0  0  0  0  0  0  0
  -32.0640    4.2531   31.0426 C   0  0  0  0  0  0  0  0  0  0  0  0
  -27.4598    0.3474   26.6934 C   0  0  0  0  0  0  0  0  0  0  0  0
  -27.8986    0.5673   25.6406 N   0  0  0  0  0  0  0  0  0  0  0  0
  -26.1156    0.1191   26.7656 O   0  0  0  0  0  0  0  0  0  0  0  0
  -29.2847    0.8386   25.4160 C   0  0  0  0  0  0  0  0  0  0  0  0
  -32.9248    5.3307   31.5764 C   0  0  0  0  0  0  0  0  0  0  0  0
  -32.3793    6.1757   32.4059 C   0  0  0  0  0  0  0  0  0  0  0  0
  -31.1356    5.7640   33.0594 C   0  0  0  0  0  0  0  0  0  0  0  0
  -30.3285    4.8057   32.5524 C   0  0  0  0  0  0  0  0  0  0  0  0
  -29.6374    0.8290   24.0614 C   0  0  0  0  0  0  0  0  0  0  0  0
  -27.1773    0.8114   24.4985 C   0  0  0  0  0  0  0  0  0  0  0  0
  -28.3146    0.8996   23.4089 C   0  0  0  0  0  0  0  0  0  0  0  0
  5  6  1  0
  3 13  1  0
 13 14  1  0
 13 15  2  0
 14 16  1  0
 16 21  2  0
 14 22  1  0
 21 23  1  0
 22 23  1  0
  1  2  2  0
  2  7  1  0
  7  5  2  0
  5  4  1  0
  4  3  2  0
  3  1  1  0
  6  8  2  0
  8  9  1  0
 12 11  1  0
 11 10  2  0
 10  6  1  0
  9 12  2  0
 12 17  1  0
 17 18  2  0
 18 19  1  0
 19 20  2  0
 20  9  1  0
M  END

$$$$
