No_3035-gen_results/8p0m/2024-11-27-11-27-31/
     RDKit          3D

  9  9  0  0  0  0  0  0  0  0999 V2000
  -28.0162   -0.8135   28.8779 C   0  0  0  0  0  0  0  0  0  0  0  0
  -28.4690   -0.7850   29.8287 C   0  0  0  0  0  0  0  0  0  0  0  0
  -27.0871    0.2903   28.6377 C   0  0  0  0  0  0  0  0  0  0  0  0
  -26.9102    0.8486   27.4199 C   0  0  0  0  0  0  0  0  0  0  0  0
  -29.5034   -1.6160   30.1085 N   0  0  0  0  0  0  0  0  0  0  0  0
  -25.7253    1.4269   27.0763 C   0  0  0  0  0  0  0  0  0  0  0  0
  -24.6870    1.6885   28.0208 C   0  0  0  0  0  0  0  0  0  0  0  0
  -24.8274    1.1268   29.2618 C   0  0  0  0  0  0  0  0  0  0  0  0
  -25.9732    0.3709   29.5202 C   0  0  0  0  0  0  0  0  0  0  0  0
  1  2  1  0
  1  3  1  0
  2  5  1  0
  3  4  2  0
  4  6  1  0
  6  7  2  0
  7  8  1  0
  8  9  2  0
  9  3  1  0
M  END

$$$$
