No_3933-gen_results/8p0m/2024-11-27-11-27-31/
     RDKit          3D

 19 21  0  0  0  0  0  0  0  0999 V2000
  -28.0162   -0.8135   28.8779 C   0  0  0  0  0  0  0  0  0  0  0  0
  -27.0636   -0.1189   28.6079 C   0  0  0  0  0  0  0  0  0  0  0  0
  -26.9287    1.1713   29.0083 C   0  0  0  0  0  0  0  0  0  0  0  0
  -27.9560    1.7411   29.7840 C   0  0  0  0  0  0  0  0  0  0  0  0
  -29.0569   -0.3271   29.7466 C   0  0  0  0  0  0  0  0  0  0  0  0
  -28.9828    0.9722   30.1516 C   0  0  0  0  0  0  0  0  0  0  0  0
  -25.9739   -0.5937   27.8380 N   0  0  0  0  0  0  0  0  0  0  0  0
  -24.8464   -0.9779   28.5448 C   0  0  0  0  0  0  0  0  0  0  0  0
  -23.6982   -0.1373   28.5843 C   0  0  0  0  0  0  0  0  0  0  0  0
  -22.5180   -0.6233   29.2796 C   0  0  0  0  0  0  0  0  0  0  0  0
  -24.6251   -2.2960   28.9068 C   0  0  0  0  0  0  0  0  0  0  0  0
  -23.4559   -2.7548   29.4684 C   0  0  0  0  0  0  0  0  0  0  0  0
  -22.3889   -1.8844   29.6054 C   0  0  0  0  0  0  0  0  0  0  0  0
  -25.9686   -0.3566   26.4652 C   0  0  0  0  0  0  0  0  0  0  0  0
  -24.8281   -0.0553   25.8202 C   0  0  0  0  0  0  0  0  0  0  0  0
  -27.1850    0.4931   26.0742 C   0  0  0  0  0  0  0  0  0  0  0  0
  -27.2742    0.6653   24.6625 C   0  0  0  0  0  0  0  0  0  0  0  0
  -24.9124    0.1872   24.4174 C   0  0  0  0  0  0  0  0  0  0  0  0
  -26.0886    0.7058   23.9438 C   0  0  0  0  0  0  0  0  0  0  0  0
  2  7  1  0
  7  8  1  0
  7 14  1  0
 14 15  2  0
 15 18  1  0
 18 19  2  0
 19 17  1  0
 17 16  2  0
 16 14  1  0
  8  9  2  0
  9 10  1  0
 10 13  2  0
 13 12  1  0
 12 11  2  0
 11  8  1  0
  1  2  2  0
  2  3  1  0
  3  4  2  0
  4  6  1  0
  6  5  2  0
  5  1  1  0
M  END

$$$$
