No_3539-gen_results/8p0m/2024-11-27-11-27-31/
     RDKit          3D

 16 16  0  0  0  0  0  0  0  0999 V2000
  -28.0162   -0.8135   28.8779 C   0  0  0  0  0  0  0  0  0  0  0  0
  -27.0636   -0.1189   28.6079 C   0  0  0  0  0  0  0  0  0  0  0  0
  -26.9287    1.1713   29.0083 C   0  0  0  0  0  0  0  0  0  0  0  0
  -25.7702    2.0341   28.6884 C   0  0  0  0  0  0  0  0  0  0  0  0
  -24.7141    1.4431   27.9188 C   0  0  0  0  0  0  0  0  0  0  0  0
  -24.8590    0.0783   27.5836 C   0  0  0  0  0  0  0  0  0  0  0  0
  -25.9647   -0.6606   27.9164 C   0  0  0  0  0  0  0  0  0  0  0  0
  -29.1778   -0.3051   28.9638 N   0  0  0  0  0  0  0  0  0  0  0  0
  -29.7430    0.3639   28.0669 C   0  0  0  0  0  0  0  0  0  0  0  0
  -29.2254    0.7711   27.1531 O   0  0  0  0  0  0  0  0  0  0  0  0
  -31.2581    0.4823   28.1402 C   0  0  0  0  0  0  0  0  0  0  0  0
  -31.8319    0.6384   27.0414 C   0  0  0  0  0  0  0  0  0  0  0  0
  -23.4815    2.1168   27.5889 C   0  0  0  0  0  0  0  0  0  0  0  0
  -23.3251    2.8178   26.7375 O   0  0  0  0  0  0  0  0  0  0  0  0
  -22.3609    1.6709   28.3092 O   0  0  0  0  0  0  0  0  0  0  0  0
  -31.3522    1.0623   25.9589 C   0  0  0  0  0  0  0  0  0  0  0  0
  1  2  1  0
  1  8  1  0
  8  9  1  0
  9 10  2  0
  9 11  1  0
 11 12  2  3
  5 13  1  0
 13 14  2  0
 13 15  1  0
 12 16  1  0
  2  3  2  0
  3  4  1  0
  4  5  2  0
  5  6  1  0
  6  7  2  0
  7  2  1  0
M  END

$$$$
