No_3295-gen_results/8p0m/2024-11-27-11-27-31/
     RDKit          3D

 35 38  0  0  0  0  0  0  0  0999 V2000
  -28.0162   -0.8135   28.8779 C   0  0  0  0  0  0  0  0  0  0  0  0
  -28.4690   -0.7850   29.8287 C   0  0  0  0  0  0  0  0  0  0  0  0
  -28.1960    0.3478   28.0550 C   0  0  0  0  0  0  0  0  0  0  0  0
  -29.0191    1.3501   28.3782 C   0  0  0  0  0  0  0  0  0  0  0  0
  -29.4107    0.1803   30.3782 C   0  0  0  0  0  0  0  0  0  0  0  0
  -29.6059    1.2495   29.6193 C   0  0  0  0  0  0  0  0  0  0  0  0
  -27.4597    0.3802   26.7091 C   0  0  0  0  0  0  0  0  0  0  0  0
  -27.9298    0.5836   25.6804 C   0  0  0  0  0  0  0  0  0  0  0  0
  -27.1251    0.5285   24.4261 C   0  0  0  0  0  0  0  0  0  0  0  0
  -26.0345    0.1369   26.7811 C   0  0  0  0  0  0  0  0  0  0  0  0
  -25.1680    0.2141   25.7256 C   0  0  0  0  0  0  0  0  0  0  0  0
  -25.7623    0.3526   24.5243 C   0  0  0  0  0  0  0  0  0  0  0  0
  -29.5979    0.7776   25.3319 Cl  0  0  0  0  0  0  0  0  0  0  0  0
  -30.6896    2.5073   30.1188 Cl  0  0  0  0  0  0  0  0  0  0  0  0
  -28.2266   -2.1662   30.9880 Cl  0  0  0  0  0  0  0  0  0  0  0  0
  -25.1041   -0.1119   28.5083 Br  0  0  0  0  0  0  0  0  0  0  0  0
  -29.9835    0.0093   31.6782 O   0  0  0  0  0  0  0  0  0  0  0  0
  -29.2973    0.1733   32.6632 C   0  0  0  0  0  0  0  0  0  0  0  0
  -29.6570   -0.7595   33.7463 C   0  0  0  0  0  0  0  0  0  0  0  0
  -28.7461   -0.8919   34.7933 C   0  0  0  0  0  0  0  0  0  0  0  0
  -27.7589   -0.4822   34.8161 C   0  0  0  0  0  0  0  0  0  0  0  0
  -27.1691    0.4214   33.8051 C   0  0  0  0  0  0  0  0  0  0  0  0
  -27.9898    0.6387   32.6945 C   0  0  0  0  0  0  0  0  0  0  0  0
  -25.8299    1.0498   33.8470 C   0  0  0  0  0  0  0  0  0  0  0  0
  -24.9289    0.3277   32.9611 C   0  0  0  0  0  0  0  0  0  0  0  0
  -24.4969    0.8882   31.7381 C   0  0  0  0  0  0  0  0  0  0  0  0
  -23.5086    0.3007   30.9830 C   0  0  0  0  0  0  0  0  0  0  0  0
  -23.0472   -0.9227   31.3293 C   0  0  0  0  0  0  0  0  0  0  0  0
  -24.3447   -0.9133   33.2890 C   0  0  0  0  0  0  0  0  0  0  0  0
  -23.4190   -1.4490   32.5399 N   0  0  0  0  0  0  0  0  0  0  0  0
  -25.0295    2.4543   31.2831 Cl  0  0  0  0  0  0  0  0  0  0  0  0
  -29.2953   -1.8219   35.9174 C   0  0  0  0  0  0  0  0  0  0  0  0
  -29.0828   -3.0288   35.8046 O   0  0  0  0  0  0  0  0  0  0  0  0
  -29.5245   -1.2958   37.0626 O   0  0  0  0  0  0  0  0  0  0  0  0
  -30.0522   -1.7004   37.9781 C   0  0  0  0  0  0  0  0  0  0  0  0
  3  7  1  0
  8 13  1  0
  6 14  1  0
  2 15  1  0
 10 16  1  0
  5 17  1  0
 17 18  1  0
 22 24  1  0
 24 25  1  0
 26 31  1  0
 20 32  1  0
 32 33  2  0
 32 34  1  0
 34 35  1  0
 18 19  2  0
 19 20  1  0
 20 21  2  0
 21 22  1  0
 22 23  2  0
 23 18  1  0
 25 26  2  0
 26 27  1  0
 27 28  2  0
 28 30  1  0
 30 29  2  0
 29 25  1  0
  1  2  2  0
  2  5  1  0
  5  6  2  0
  6  4  1  0
  4  3  2  0
  3  1  1  0
  7  8  2  0
  8  9  1  0
  9 12  2  0
 12 11  1  0
 11 10  2  0
 10  7  1  0
M  END

$$$$
