No_3363-gen_results/8p0m/2024-11-27-11-27-31/
     RDKit          3D

 35 38  0  0  0  0  0  0  0  0999 V2000
  -28.0162   -0.8135   28.8779 C   0  0  0  0  0  0  0  0  0  0  0  0
  -27.0636   -0.1189   28.6079 C   0  0  0  0  0  0  0  0  0  0  0  0
  -26.9716    0.7139   27.5060 C   0  0  0  0  0  0  0  0  0  0  0  0
  -28.1053    0.7744   26.6421 C   0  0  0  0  0  0  0  0  0  0  0  0
  -29.2008    0.1044   27.0527 C   0  0  0  0  0  0  0  0  0  0  0  0
  -29.2096   -0.6029   28.1853 C   0  0  0  0  0  0  0  0  0  0  0  0
  -30.2828    0.2138   26.2960 F   0  0  0  0  0  0  0  0  0  0  0  0
  -25.7134   -0.2153   29.4104 C   0  0  0  0  0  0  0  0  0  0  0  0
  -25.1221    0.8637   29.7395 N   0  0  0  0  0  0  0  0  0  0  0  0
  -25.2151    1.4632   30.7648 C   0  0  0  0  0  0  0  0  0  0  0  0
  -25.6544    2.4660   31.1045 C   0  0  0  0  0  0  0  0  0  0  0  0
  -25.8119    3.0365   32.4724 C   0  0  0  0  0  0  0  0  0  0  0  0
  -24.2426    0.9592   31.8567 C   0  0  0  0  0  0  0  0  0  0  0  0
  -23.4885   -0.2714   31.5710 C   0  0  0  0  0  0  0  0  0  0  0  0
  -26.4081    4.3268   32.6796 C   0  0  0  0  0  0  0  0  0  0  0  0
  -26.6042    3.2589   30.3205 C   0  0  0  0  0  0  0  0  0  0  0  0
  -27.2836    4.3972   30.5099 C   0  0  0  0  0  0  0  0  0  0  0  0
  -27.1983    4.9423   31.7791 C   0  0  0  0  0  0  0  0  0  0  0  0
  -25.3092   -1.5197   29.7062 C   0  0  0  0  0  0  0  0  0  0  0  0
  -24.2618   -1.4932   30.9920 C   0  0  0  0  0  0  0  0  0  0  0  0
  -23.9398    1.1550   28.8710 C   0  0  0  0  0  0  0  0  0  0  0  0
  -23.3228    0.1280   28.1412 C   0  0  0  0  0  0  0  0  0  0  0  0
  -23.6328    2.5618   28.6843 C   0  0  0  0  0  0  0  0  0  0  0  0
  -28.0889    1.5836   25.5773 O   0  0  0  0  0  0  0  0  0  0  0  0
  -23.8363    2.9431   27.5893 O   0  0  0  0  0  0  0  0  0  0  0  0
  -27.8447    6.1383   32.0202 O   0  0  0  0  0  0  0  0  0  0  0  0
  -28.8268    6.4688   31.8720 C   0  0  0  0  0  0  0  0  0  0  0  0
  -29.1254    7.3688   30.7820 C   0  0  0  0  0  0  0  0  0  0  0  0
  -30.2839    7.4139   30.1415 C   0  0  0  0  0  0  0  0  0  0  0  0
  -29.9364    5.9750   32.5633 C   0  0  0  0  0  0  0  0  0  0  0  0
  -31.2533    6.1244   32.0260 C   0  0  0  0  0  0  0  0  0  0  0  0
  -31.4319    6.9208   30.8931 C   0  0  0  0  0  0  0  0  0  0  0  0
  -32.7938    7.1166   30.3826 C   0  0  0  0  0  0  0  0  0  0  0  0
  -33.4572    8.1673   30.8716 C   0  0  0  0  0  0  0  0  0  0  0  0
  -33.0669    8.9181   31.7579 C   0  0  0  0  0  0  0  0  0  0  0  0
  5  7  1  0
  2  8  1  0
  8  9  1  0
  9 10  1  0
 10 13  1  0
 13 14  2  0
  8 19  1  0
 14 20  1  0
 19 20  1  0
  9 21  1  0
 21 22  1  0
 21 23  1  0
  4 24  1  0
 23 25  1  0
 18 26  1  0
 26 27  1  0
 32 33  1  0
 33 34  1  0
 34 35  2  0
 10 11  1  0
  1  2  2  0
  2  3  1  0
  3  4  2  0
  4  5  1  0
  5  6  2  0
  6  1  1  0
 11 12  2  0
 12 15  1  0
 15 18  2  0
 18 17  1  0
 17 16  2  0
 16 11  1  0
 27 28  2  0
 28 29  1  0
 29 32  2  0
 32 31  1  0
 31 30  2  0
 30 27  1  0
M  END

$$$$
