No_3138-gen_results/8p0m/2024-11-27-11-27-31/
     RDKit          3D

 29 32  0  0  0  0  0  0  0  0999 V2000
  -28.0162   -0.8135   28.8779 C   0  0  0  0  0  0  0  0  0  0  0  0
  -27.0636   -0.1189   28.6079 C   0  0  0  0  0  0  0  0  0  0  0  0
  -26.9716    0.7139   27.5060 C   0  0  0  0  0  0  0  0  0  0  0  0
  -25.8206    1.4910   27.1160 C   0  0  0  0  0  0  0  0  0  0  0  0
  -24.6562    1.4242   27.9180 C   0  0  0  0  0  0  0  0  0  0  0  0
  -24.6847    0.5901   29.0659 C   0  0  0  0  0  0  0  0  0  0  0  0
  -25.8099   -0.1265   29.3338 C   0  0  0  0  0  0  0  0  0  0  0  0
  -28.6943   -0.4734   30.1587 C   0  0  0  0  0  0  0  0  0  0  0  0
  -28.6464    0.5791   30.6347 N   0  0  0  0  0  0  0  0  0  0  0  0
  -29.3973   -1.5237   30.6659 F   0  0  0  0  0  0  0  0  0  0  0  0
  -23.6001    2.1304   27.6387 F   0  0  0  0  0  0  0  0  0  0  0  0
  -28.7136    1.6478   30.3973 C   0  0  0  0  0  0  0  0  0  0  0  0
  -28.9959    2.6110   30.7517 C   0  0  0  0  0  0  0  0  0  0  0  0
  -28.8832    3.9739   30.1778 C   0  0  0  0  0  0  0  0  0  0  0  0
  -28.3478    4.0221   28.9057 C   0  0  0  0  0  0  0  0  0  0  0  0
  -27.9489    2.9353   28.3254 C   0  0  0  0  0  0  0  0  0  0  0  0
  -28.0626    1.8071   28.9135 C   0  0  0  0  0  0  0  0  0  0  0  0
  -27.8929    0.8801   28.0431 N   0  0  0  0  0  0  0  0  0  0  0  0
  -28.8043    0.5504   26.9903 C   0  0  0  0  0  0  0  0  0  0  0  0
  -28.5569    0.6394   25.7569 C   0  0  0  0  0  0  0  0  0  0  0  0
  -30.2131    0.3216   27.4216 C   0  0  0  0  0  0  0  0  0  0  0  0
  -29.5956    0.4675   24.7697 C   0  0  0  0  0  0  0  0  0  0  0  0
  -31.2015    0.1512   26.4609 C   0  0  0  0  0  0  0  0  0  0  0  0
  -30.8688    0.2196   25.1382 C   0  0  0  0  0  0  0  0  0  0  0  0
  -32.6066   -0.1128   26.8736 C   0  0  0  0  0  0  0  0  0  0  0  0
  -33.1715    0.2156   27.8753 N   0  0  0  0  0  0  0  0  0  0  0  0
  -34.3801   -0.1257   28.3273 C   0  0  0  0  0  0  0  0  0  0  0  0
  -33.2341   -0.8842   26.1672 O   0  0  0  0  0  0  0  0  0  0  0  0
  -29.4579    0.5864   23.3152 C   0  0  0  0  0  0  0  0  0  0  0  0
  1  8  1  0
  8  9  2  3
  8 10  1  0
  5 11  1  0
  9 12  1  0
  3 18  1  0
 17 18  1  0
 18 19  1  0
 23 25  1  0
 25 26  1  0
 26 27  1  0
 25 28  2  0
 22 29  1  0
  1  2  1  0
 12 13  2  0
 13 14  1  0
 14 15  2  0
 15 16  1  0
 16 17  2  0
 17 12  1  0
  2  3  2  0
  3  4  1  0
  4  5  2  0
  5  6  1  0
  6  7  2  0
  7  2  1  0
 19 20  2  0
 20 22  1  0
 22 24  2  0
 24 23  1  0
 23 21  2  0
 21 19  1  0
M  END

$$$$
