No_3064-gen_results/8p0m/2024-11-27-11-27-31/
     RDKit          3D

 14 15  0  0  0  0  0  0  0  0999 V2000
  -28.0162   -0.8135   28.8779 C   0  0  0  0  0  0  0  0  0  0  0  0
  -28.4690   -0.7850   29.8287 C   0  0  0  0  0  0  0  0  0  0  0  0
  -28.1960    0.3478   28.0550 C   0  0  0  0  0  0  0  0  0  0  0  0
  -29.0191    1.3501   28.3782 C   0  0  0  0  0  0  0  0  0  0  0  0
  -29.4107    0.1803   30.3782 C   0  0  0  0  0  0  0  0  0  0  0  0
  -29.6059    1.2495   29.6193 C   0  0  0  0  0  0  0  0  0  0  0  0
  -27.5003    0.3576   26.8164 O   0  0  0  0  0  0  0  0  0  0  0  0
  -26.1366    0.3585   26.7616 C   0  0  0  0  0  0  0  0  0  0  0  0
  -25.5338    1.1635   25.8167 C   0  0  0  0  0  0  0  0  0  0  0  0
  -25.2964   -0.4598   27.5936 C   0  0  0  0  0  0  0  0  0  0  0  0
  -24.0889    1.1654   25.7151 C   0  0  0  0  0  0  0  0  0  0  0  0
  -23.9149   -0.2626   27.6346 C   0  0  0  0  0  0  0  0  0  0  0  0
  -23.3102    0.6266   26.7177 C   0  0  0  0  0  0  0  0  0  0  0  0
  -22.9325   -0.9640   28.8018 Cl  0  0  0  0  0  0  0  0  0  0  0  0
  3  7  1  0
  7  8  1  0
 12 14  1  0
  8  9  2  0
  9 11  1  0
 11 13  2  0
 13 12  1  0
 12 10  2  0
 10  8  1  0
  1  2  2  0
  2  5  1  0
  5  6  2  0
  6  4  1  0
  4  3  2  0
  3  1  1  0
M  END

$$$$
