No_3362-gen_results/8p0m/2024-11-27-11-27-31/
     RDKit          3D

 25 26  0  0  0  0  0  0  0  0999 V2000
  -28.0162   -0.8135   28.8779 C   0  0  0  0  0  0  0  0  0  0  0  0
  -28.4690   -0.7850   29.8287 C   0  0  0  0  0  0  0  0  0  0  0  0
  -26.5455   -0.8762   28.8500 C   0  0  0  0  0  0  0  0  0  0  0  0
  -25.8041   -1.0324   30.0571 C   0  0  0  0  0  0  0  0  0  0  0  0
  -27.9437   -0.9869   31.2075 C   0  0  0  0  0  0  0  0  0  0  0  0
  -26.5825   -1.0386   31.2231 C   0  0  0  0  0  0  0  0  0  0  0  0
  -30.2809   -0.7232   29.8834 Cl  0  0  0  0  0  0  0  0  0  0  0  0
  -24.1273   -1.1270   30.0648 Cl  0  0  0  0  0  0  0  0  0  0  0  0
  -25.7634   -0.8478   27.7110 O   0  0  0  0  0  0  0  0  0  0  0  0
  -26.1938    0.2075   26.8560 C   0  0  0  0  0  0  0  0  0  0  0  0
  -25.5584    1.2611   26.9876 C   0  0  0  0  0  0  0  0  0  0  0  0
  -25.8617    2.3417   26.0582 C   0  0  0  0  0  0  0  0  0  0  0  0
  -26.8785    2.2003   25.1359 C   0  0  0  0  0  0  0  0  0  0  0  0
  -27.1788    0.0187   25.8985 C   0  0  0  0  0  0  0  0  0  0  0  0
  -27.4790    1.0145   25.0266 C   0  0  0  0  0  0  0  0  0  0  0  0
  -28.6875    0.8334   23.8320 Cl  0  0  0  0  0  0  0  0  0  0  0  0
  -25.0338    3.8566   26.2532 Cl  0  0  0  0  0  0  0  0  0  0  0  0
  -28.8722   -1.0685   32.6283 Cl  0  0  0  0  0  0  0  0  0  0  0  0
  -24.6240    1.5480   27.9101 O   0  0  0  0  0  0  0  0  0  0  0  0
  -23.2583    1.1466   27.5351 C   0  0  0  0  0  0  0  0  0  0  0  0
  -22.2696    2.0948   28.1871 C   0  0  0  0  0  0  0  0  0  0  0  0
  -20.9685    1.6660   27.7505 C   0  0  0  0  0  0  0  0  0  0  0  0
  -20.3889    0.9095   28.6970 O   0  0  0  0  0  0  0  0  0  0  0  0
  -22.4011    1.9742   29.5417 O   0  0  0  0  0  0  0  0  0  0  0  0
  -22.8456    0.8258   30.0809 C   0  0  0  0  0  0  0  0  0  0  0  0
  2  7  1  0
  4  8  1  0
  3  9  1  0
  9 10  1  0
 15 16  1  0
 12 17  1  0
  5 18  1  0
 11 19  1  0
 19 20  1  0
 20 21  1  0
 21 22  1  0
 22 23  1  0
 21 24  1  0
 24 25  1  0
 10 11  2  0
 11 12  1  0
 12 13  2  0
 13 15  1  0
 15 14  2  0
 14 10  1  0
  1  2  2  0
  2  5  1  0
  5  6  2  0
  6  4  1  0
  4  3  2  0
  3  1  1  0
M  END

$$$$
