No_3742-gen_results/8p0m/2024-11-27-11-27-31/
     RDKit          3D

 35 39  0  0  0  0  0  0  0  0999 V2000
  -28.0162   -0.8135   28.8779 C   0  0  0  0  0  0  0  0  0  0  0  0
  -28.4690   -0.7850   29.8287 C   0  0  0  0  0  0  0  0  0  0  0  0
  -26.5455   -0.8762   28.8500 C   0  0  0  0  0  0  0  0  0  0  0  0
  -25.8041   -1.0324   30.0571 C   0  0  0  0  0  0  0  0  0  0  0  0
  -27.9437   -0.9869   31.2075 C   0  0  0  0  0  0  0  0  0  0  0  0
  -24.4008   -1.0969   30.0965 C   0  0  0  0  0  0  0  0  0  0  0  0
  -26.5612   -1.0746   31.2270 C   0  0  0  0  0  0  0  0  0  0  0  0
  -23.6345   -0.8924   29.0458 C   0  0  0  0  0  0  0  0  0  0  0  0
  -22.1743   -0.7863   29.1506 C   0  0  0  0  0  0  0  0  0  0  0  0
  -21.4424   -0.3102   28.0936 C   0  0  0  0  0  0  0  0  0  0  0  0
  -22.1152    0.6796   27.2648 C   0  0  0  0  0  0  0  0  0  0  0  0
  -23.5411    0.8458   27.3327 C   0  0  0  0  0  0  0  0  0  0  0  0
  -24.2524    0.1594   28.2215 C   0  0  0  0  0  0  0  0  0  0  0  0
  -25.7468   -0.3374   27.8111 N   0  0  0  0  0  0  0  0  0  0  0  0
  -26.2232    0.0828   26.5826 C   0  0  0  0  0  0  0  0  0  0  0  0
  -26.6339    1.3858   26.4077 C   0  0  0  0  0  0  0  0  0  0  0  0
  -27.8766    1.7122   26.9371 C   0  0  0  0  0  0  0  0  0  0  0  0
  -28.2835    3.0601   26.8953 C   0  0  0  0  0  0  0  0  0  0  0  0
  -29.4517    3.5558   27.4124 C   0  0  0  0  0  0  0  0  0  0  0  0
  -26.0010    2.3840   25.7637 C   0  0  0  0  0  0  0  0  0  0  0  0
  -26.3018    3.7119   25.6248 C   0  0  0  0  0  0  0  0  0  0  0  0
  -27.4566    4.0252   26.1995 C   0  0  0  0  0  0  0  0  0  0  0  0
  -30.0674    2.8480   28.3052 C   0  0  0  0  0  0  0  0  0  0  0  0
  -31.3309    3.2275   28.9407 C   0  0  0  0  0  0  0  0  0  0  0  0
  -31.9028    4.4017   28.4393 C   0  0  0  0  0  0  0  0  0  0  0  0
  -33.1287    4.8231   28.9992 C   0  0  0  0  0  0  0  0  0  0  0  0
  -30.0822    4.7700   27.0329 C   0  0  0  0  0  0  0  0  0  0  0  0
  -31.2701    5.1786   27.5002 C   0  0  0  0  0  0  0  0  0  0  0  0
  -34.0108    5.2729   28.4689 O   0  0  0  0  0  0  0  0  0  0  0  0
  -33.2218    4.6338   30.3395 O   0  0  0  0  0  0  0  0  0  0  0  0
  -30.1062   -0.7551   29.8927 C   0  0  0  0  0  0  0  0  0  0  0  0
  -30.7010   -0.9986   28.8783 O   0  0  0  0  0  0  0  0  0  0  0  0
  -30.6656   -0.0472   30.8764 O   0  0  0  0  0  0  0  0  0  0  0  0
  -26.0767   -0.7060   25.6776 O   0  0  0  0  0  0  0  0  0  0  0  0
  -34.3890    4.5634   31.0525 C   0  0  0  0  0  0  0  0  0  0  0  0
  4  6  1  0
  3 14  1  0
 13 14  1  0
 14 15  1  0
 15 16  1  0
 18 19  1  0
 25 26  1  0
 26 29  2  0
 26 30  1  0
  2 31  1  0
 31 32  2  0
 31 33  1  0
 15 34  2  0
 30 35  1  0
  6  8  1  0
 19 23  2  0
 23 24  1  0
 24 25  2  0
 25 28  1  0
 28 27  2  0
 27 19  1  0
  1  2  2  0
  2  5  1  0
  5  7  2  0
  7  4  1  0
  4  3  2  0
  3  1  1  0
 16 17  2  0
 17 18  1  0
 18 22  2  0
 22 21  1  0
 21 20  2  0
 20 16  1  0
  8  9  2  0
  9 10  1  0
 10 11  2  0
 11 12  1  0
 12 13  2  0
 13  8  1  0
M  END

$$$$
