No_3040-gen_results/8p0m/2024-11-27-11-27-31/
     RDKit          3D

 19 21  0  0  0  0  0  0  0  0999 V2000
  -28.0162   -0.8135   28.8779 C   0  0  0  0  0  0  0  0  0  0  0  0
  -28.4690   -0.7850   29.8287 C   0  0  0  0  0  0  0  0  0  0  0  0
  -26.5455   -0.8762   28.8500 C   0  0  0  0  0  0  0  0  0  0  0  0
  -25.8041   -1.0324   30.0571 C   0  0  0  0  0  0  0  0  0  0  0  0
  -26.5373   -1.0386   31.2171 C   0  0  0  0  0  0  0  0  0  0  0  0
  -27.8843   -0.9532   31.1862 C   0  0  0  0  0  0  0  0  0  0  0  0
  -24.3655   -1.1134   30.0483 C   0  0  0  0  0  0  0  0  0  0  0  0
  -23.5057   -0.2069   28.9672 Br  0  0  0  0  0  0  0  0  0  0  0  0
  -30.0658   -0.6372   29.7479 C   0  0  0  0  0  0  0  0  0  0  0  0
  -30.8187   -1.3525   30.2717 O   0  0  0  0  0  0  0  0  0  0  0  0
  -30.4692    0.3860   29.0177 N   0  0  0  0  0  0  0  0  0  0  0  0
  -31.8571    0.6270   28.7851 C   0  0  0  0  0  0  0  0  0  0  0  0
  -32.0868    1.2418   27.6741 C   0  0  0  0  0  0  0  0  0  0  0  0
  -31.1139    1.8974   26.9427 C   0  0  0  0  0  0  0  0  0  0  0  0
  -29.7492    1.6832   27.1850 C   0  0  0  0  0  0  0  0  0  0  0  0
  -29.4894    0.8992   28.1344 C   0  0  0  0  0  0  0  0  0  0  0  0
  -28.3367    0.1099   27.8274 O   0  0  0  0  0  0  0  0  0  0  0  0
  -23.9875   -2.5195   29.7741 F   0  0  0  0  0  0  0  0  0  0  0  0
  -23.8091   -1.0445   31.3644 F   0  0  0  0  0  0  0  0  0  0  0  0
  4  7  1  0
  7  8  1  0
  2  9  1  0
  9 10  2  0
  9 11  1  0
 11 12  1  0
 13 14  1  0
 11 16  1  0
 15 16  1  0
  1 17  1  0
 16 17  1  0
  7 18  1  0
  7 19  1  0
 12 13  1  0
 14 15  1  0
  1  2  2  0
  2  6  1  0
  6  5  2  0
  5  4  1  0
  4  3  2  0
  3  1  1  0
M  END

$$$$
