No_3749-gen_results/8p0m/2024-11-27-11-27-31/
     RDKit          3D

 21 22  0  0  0  0  0  0  0  0999 V2000
  -28.0162   -0.8135   28.8779 C   0  0  0  0  0  0  0  0  0  0  0  0
  -27.0636   -0.1190   28.6079 C   0  0  0  0  0  0  0  0  0  0  0  0
  -26.9287    1.1713   29.0083 C   0  0  0  0  0  0  0  0  0  0  0  0
  -27.9560    1.7411   29.7840 C   0  0  0  0  0  0  0  0  0  0  0  0
  -29.0569   -0.3271   29.7466 C   0  0  0  0  0  0  0  0  0  0  0  0
  -28.9828    0.9722   30.1516 C   0  0  0  0  0  0  0  0  0  0  0  0
  -25.7352   -0.7297   27.6631 Cl  0  0  0  0  0  0  0  0  0  0  0  0
  -29.9721    1.4269   30.9344 F   0  0  0  0  0  0  0  0  0  0  0  0
  -25.7443    2.0324   28.5638 C   0  0  0  0  0  0  0  0  0  0  0  0
  -24.5913    1.8045   29.3093 C   0  0  0  0  0  0  0  0  0  0  0  0
  -24.4167    1.7683   30.6211 C   0  0  0  0  0  0  0  0  0  0  0  0
  -25.5930    1.8875   31.4323 C   0  0  0  0  0  0  0  0  0  0  0  0
  -25.4719    3.2051   32.2438 C   0  0  0  0  0  0  0  0  0  0  0  0
  -26.5426    3.4344   33.2046 C   0  0  0  0  0  0  0  0  0  0  0  0
  -26.6039    4.6984   33.8054 C   0  0  0  0  0  0  0  0  0  0  0  0
  -25.6145    5.6693   33.5296 C   0  0  0  0  0  0  0  0  0  0  0  0
  -24.5804    5.3854   32.6521 C   0  0  0  0  0  0  0  0  0  0  0  0
  -24.5416    4.1710   31.9918 C   0  0  0  0  0  0  0  0  0  0  0  0
  -23.4088    2.1468   28.4705 C   0  0  0  0  0  0  0  0  0  0  0  0
  -23.4974    2.6165   27.3963 O   0  0  0  0  0  0  0  0  0  0  0  0
  -22.2488    1.8275   28.9694 O   0  0  0  0  0  0  0  0  0  0  0  0
  2  7  1  0
  6  8  1  0
  3  9  1  0
  9 10  1  0
 10 11  2  3
 11 12  1  0
 10 19  1  0
 19 20  2  0
 19 21  1  0
 12 13  1  0
 13 14  2  0
 14 15  1  0
 15 16  2  0
 16 17  1  0
 17 18  2  0
 18 13  1  0
  1  2  2  0
  2  3  1  0
  3  4  2  0
  4  6  1  0
  6  5  2  0
  5  1  1  0
M  END

$$$$
