No_3153-gen_results/8p0m/2024-11-27-11-27-31/
     RDKit          3D

 35 40  0  0  0  0  0  0  0  0999 V2000
  -28.0162   -0.8135   28.8779 C   0  0  0  0  0  0  0  0  0  0  0  0
  -27.0636   -0.1189   28.6079 C   0  0  0  0  0  0  0  0  0  0  0  0
  -25.7647   -0.3897   29.0360 C   0  0  0  0  0  0  0  0  0  0  0  0
  -25.5296   -1.5302   29.9014 C   0  0  0  0  0  0  0  0  0  0  0  0
  -26.6577   -2.2915   30.2035 C   0  0  0  0  0  0  0  0  0  0  0  0
  -27.8548   -1.9555   29.7630 C   0  0  0  0  0  0  0  0  0  0  0  0
  -24.6243    0.3696   28.7560 N   0  0  0  0  0  0  0  0  0  0  0  0
  -24.5038    1.1933   27.7659 C   0  0  0  0  0  0  0  0  0  0  0  0
  -23.2328    1.8168   27.5195 C   0  0  0  0  0  0  0  0  0  0  0  0
  -23.3539    0.2813   29.4641 C   0  0  0  0  0  0  0  0  0  0  0  0
  -22.4137    1.2159   28.6873 C   0  0  0  0  0  0  0  0  0  0  0  0
  -28.9460   -2.7427   30.1318 N   0  0  0  0  0  0  0  0  0  0  0  0
  -29.4255   -2.7357   31.3504 C   0  0  0  0  0  0  0  0  0  0  0  0
  -30.4348   -3.7765   31.6698 C   0  0  0  0  0  0  0  0  0  0  0  0
  -30.8703   -4.4393   30.9040 C   0  0  0  0  0  0  0  0  0  0  0  0
  -30.3625   -4.5550   29.5283 C   0  0  0  0  0  0  0  0  0  0  0  0
  -29.3562   -3.7583   29.3566 C   0  0  0  0  0  0  0  0  0  0  0  0
  -25.5387    1.4968   26.7580 C   0  0  0  0  0  0  0  0  0  0  0  0
  -27.1761    0.9285   27.5790 C   0  0  0  0  0  0  0  0  0  0  0  0
  -27.7185    2.2239   28.0163 C   0  0  0  0  0  0  0  0  0  0  0  0
  -27.9289    0.4258   26.3157 C   0  0  0  0  0  0  0  0  0  0  0  0
  -29.2420    0.8783   26.1365 C   0  0  0  0  0  0  0  0  0  0  0  0
  -29.0317    2.5440   27.9442 C   0  0  0  0  0  0  0  0  0  0  0  0
  -29.7272    1.9489   26.8546 C   0  0  0  0  0  0  0  0  0  0  0  0
  -26.9485    2.9259   29.1182 C   0  0  0  0  0  0  0  0  0  0  0  0
  -26.5968    2.5650   30.0437 O   0  0  0  0  0  0  0  0  0  0  0  0
  -26.9795    4.3196   28.8733 N   0  0  0  0  0  0  0  0  0  0  0  0
  -26.2756    5.2380   29.7627 C   0  0  0  0  0  0  0  0  0  0  0  0
  -25.8835    6.3723   29.0751 C   0  0  0  0  0  0  0  0  0  0  0  0
  -27.3258    4.9783   27.6634 C   0  0  0  0  0  0  0  0  0  0  0  0
  -25.3457    7.4998   29.5676 C   0  0  0  0  0  0  0  0  0  0  0  0
  -26.3658    6.3520   27.6626 C   0  0  0  0  0  0  0  0  0  0  0  0
  -24.6685    8.3430   28.8528 O   0  0  0  0  0  0  0  0  0  0  0  0
  -25.2539    7.7164   30.9464 N   0  0  0  0  0  0  0  0  0  0  0  0
  -25.8220    6.9021   31.8997 C   0  0  0  0  0  0  0  0  0  0  0  0
  3  7  1  0
  7  8  1  0
  8  9  2  0
  7 10  1  0
  9 11  1  0
 10 11  1  0
  6 12  1  0
 12 13  1  0
 14 15  1  0
 12 17  1  0
 16 17  1  0
  8 18  1  0
  2 19  1  0
 18 19  1  0
 19 20  1  0
 19 21  1  0
 22 24  1  0
 23 24  1  0
 20 25  1  0
 25 26  2  0
 25 27  1  0
 27 28  1  0
 28 29  2  0
 27 30  1  0
 29 31  1  0
 29 32  1  0
 30 32  2  0
 31 33  2  0
 31 34  1  0
 34 35  1  0
 13 14  1  0
 15 16  1  0
 20 23  1  0
 22 21  1  0
  1  2  2  0
  2  3  1  0
  3  4  2  0
  4  5  1  0
  5  6  2  0
  6  1  1  0
M  END

$$$$
