No_3565-gen_results/8p0m/2024-11-27-11-27-31/
     RDKit          3D

 35 38  0  0  0  0  0  0  0  0999 V2000
  -28.1493   -0.8198   28.9079 Cl  0  0  0  0  0  0  0  0  0  0  0  0
  -26.9116   -0.0797   28.9452 C   0  0  0  0  0  0  0  0  0  0  0  0
  -26.0490   -0.0718   27.8591 C   0  0  0  0  0  0  0  0  0  0  0  0
  -24.7194    0.4034   27.9174 C   0  0  0  0  0  0  0  0  0  0  0  0
  -24.2099    0.9302   29.0839 C   0  0  0  0  0  0  0  0  0  0  0  0
  -25.0231    0.9078   30.1875 C   0  0  0  0  0  0  0  0  0  0  0  0
  -26.2532    0.3904   30.1401 C   0  0  0  0  0  0  0  0  0  0  0  0
  -22.8500    1.4479   29.0593 C   0  0  0  0  0  0  0  0  0  0  0  0
  -22.0944    1.5228   27.9761 N   0  0  0  0  0  0  0  0  0  0  0  0
  -22.4857    1.9544   29.9987 O   0  0  0  0  0  0  0  0  0  0  0  0
  -27.0787    0.3463   31.4316 C   0  0  0  0  0  0  0  0  0  0  0  0
  -28.3402    0.8171   31.4858 C   0  0  0  0  0  0  0  0  0  0  0  0
  -28.6711    1.9034   30.8603 C   0  0  0  0  0  0  0  0  0  0  0  0
  -27.8576    2.9951   30.9700 C   0  0  0  0  0  0  0  0  0  0  0  0
  -28.1982    4.3414   30.4270 C   0  0  0  0  0  0  0  0  0  0  0  0
  -29.3385    4.3664   29.6669 C   0  0  0  0  0  0  0  0  0  0  0  0
  -30.1633    3.2751   29.5530 C   0  0  0  0  0  0  0  0  0  0  0  0
  -29.8692    2.1002   30.1260 C   0  0  0  0  0  0  0  0  0  0  0  0
  -27.4051    5.3526   30.5788 F   0  0  0  0  0  0  0  0  0  0  0  0
  -31.6338    3.4725   28.6719 Cl  0  0  0  0  0  0  0  0  0  0  0  0
  -28.8890    0.7084   32.8391 C   0  0  0  0  0  0  0  0  0  0  0  0
  -29.7500    0.1905   33.2068 C   0  0  0  0  0  0  0  0  0  0  0  0
  -30.6595   -0.5634   32.3024 C   0  0  0  0  0  0  0  0  0  0  0  0
  -31.8814   -1.1109   32.7109 C   0  0  0  0  0  0  0  0  0  0  0  0
  -32.1690   -1.0584   34.0116 C   0  0  0  0  0  0  0  0  0  0  0  0
  -31.4394   -0.4345   34.9664 C   0  0  0  0  0  0  0  0  0  0  0  0
  -30.2873    0.2168   34.6428 C   0  0  0  0  0  0  0  0  0  0  0  0
  -28.4019    1.8629   33.6146 C   0  0  0  0  0  0  0  0  0  0  0  0
  -27.9248    2.2289   34.5237 C   0  0  0  0  0  0  0  0  0  0  0  0
  -27.5303    3.5225   35.0174 C   0  0  0  0  0  0  0  0  0  0  0  0
  -27.7255    4.5835   34.1331 C   0  0  0  0  0  0  0  0  0  0  0  0
  -27.3130    5.8676   34.5491 C   0  0  0  0  0  0  0  0  0  0  0  0
  -26.5798    6.0301   35.6353 C   0  0  0  0  0  0  0  0  0  0  0  0
  -26.3331    5.0231   36.5162 C   0  0  0  0  0  0  0  0  0  0  0  0
  -26.7850    3.7421   36.1644 C   0  0  0  0  0  0  0  0  0  0  0  0
  1  2  1  0
  5  8  1  0
  8  9  1  0
  8 10  2  0
  7 11  1  0
 11 12  1  0
 12 13  1  0
 15 19  1  0
 17 20  1  0
 12 21  1  0
 21 28  1  0
 28 29  2  3
 29 30  1  0
 21 22  1  0
  2  3  2  0
  3  4  1  0
  4  5  2  0
  5  6  1  0
  6  7  2  0
  7  2  1  0
 13 14  2  0
 14 15  1  0
 15 16  2  0
 16 17  1  0
 17 18  2  0
 18 13  1  0
 30 31  2  0
 31 32  1  0
 32 33  2  0
 33 34  1  0
 34 35  2  0
 35 30  1  0
 22 23  2  0
 23 24  1  0
 24 25  2  0
 25 26  1  0
 26 27  2  0
 27 22  1  0
M  END

$$$$
