No_3600-gen_results/8p0m/2024-11-27-11-27-31/
     RDKit          3D

 26 29  0  0  0  0  0  0  0  0999 V2000
  -28.0162   -0.8135   28.8779 C   0  0  0  0  0  0  0  0  0  0  0  0
  -27.0636   -0.1190   28.6079 C   0  0  0  0  0  0  0  0  0  0  0  0
  -26.9716    0.7139   27.5060 C   0  0  0  0  0  0  0  0  0  0  0  0
  -28.1053    0.7744   26.6421 C   0  0  0  0  0  0  0  0  0  0  0  0
  -29.2041    0.1179   27.0477 C   0  0  0  0  0  0  0  0  0  0  0  0
  -29.2127   -0.6088   28.1281 C   0  0  0  0  0  0  0  0  0  0  0  0
  -25.7106    1.4518   27.1380 C   0  0  0  0  0  0  0  0  0  0  0  0
  -24.6052    0.9253   27.6902 C   0  0  0  0  0  0  0  0  0  0  0  0
  -23.3087    1.6018   27.4923 C   0  0  0  0  0  0  0  0  0  0  0  0
  -22.1769    1.1971   28.2745 C   0  0  0  0  0  0  0  0  0  0  0  0
  -22.2182    0.0930   29.0618 C   0  0  0  0  0  0  0  0  0  0  0  0
  -23.4005   -0.6727   29.1615 C   0  0  0  0  0  0  0  0  0  0  0  0
  -24.5560   -0.2221   28.5396 C   0  0  0  0  0  0  0  0  0  0  0  0
  -25.7306   -0.6018   29.1335 C   0  0  0  0  0  0  0  0  0  0  0  0
  -25.7018   -1.7398   29.7364 O   0  0  0  0  0  0  0  0  0  0  0  0
  -30.4510    0.3491   26.2741 C   0  0  0  0  0  0  0  0  0  0  0  0
  -30.5125    0.1657   25.0594 O   0  0  0  0  0  0  0  0  0  0  0  0
  -31.4252    1.0020   26.8197 O   0  0  0  0  0  0  0  0  0  0  0  0
  -25.7609    2.5171   26.1869 C   0  0  0  0  0  0  0  0  0  0  0  0
  -32.7124    1.0027   26.4019 C   0  0  0  0  0  0  0  0  0  0  0  0
  -33.7138    1.3953   27.2790 C   0  0  0  0  0  0  0  0  0  0  0  0
  -34.9458    1.4098   26.9386 C   0  0  0  0  0  0  0  0  0  0  0  0
  -35.2992    0.9888   25.6050 C   0  0  0  0  0  0  0  0  0  0  0  0
  -34.3329    0.5685   24.7232 C   0  0  0  0  0  0  0  0  0  0  0  0
  -33.0235    0.5462   25.1335 C   0  0  0  0  0  0  0  0  0  0  0  0
  -37.0787    0.9973   25.0064 Br  0  0  0  0  0  0  0  0  0  0  0  0
  3  7  1  0
  2 14  1  0
 13 14  1  0
 14 15  2  0
  5 16  1  0
 16 17  2  0
 16 18  1  0
  7 19  1  0
 18 20  1  0
 23 26  1  0
  7  8  1  0
  1  2  2  0
  2  3  1  0
  3  4  2  0
  4  5  1  0
  5  6  2  0
  6  1  1  0
  8  9  2  0
  9 10  1  0
 10 11  2  0
 11 12  1  0
 12 13  2  0
 13  8  1  0
 20 21  2  0
 21 22  1  0
 22 23  2  0
 23 24  1  0
 24 25  2  0
 25 20  1  0
M  END

$$$$
