No_3106-gen_results/8p0m/2024-11-27-11-27-31/
     RDKit          3D

 21 22  0  0  0  0  0  0  0  0999 V2000
  -28.0162   -0.8135   28.8779 C   0  0  0  0  0  0  0  0  0  0  0  0
  -27.0636   -0.1189   28.6079 C   0  0  0  0  0  0  0  0  0  0  0  0
  -25.7647   -0.3897   29.0360 C   0  0  0  0  0  0  0  0  0  0  0  0
  -25.5296   -1.5302   29.9014 C   0  0  0  0  0  0  0  0  0  0  0  0
  -26.6577   -2.2915   30.2035 C   0  0  0  0  0  0  0  0  0  0  0  0
  -27.8548   -1.9555   29.7630 C   0  0  0  0  0  0  0  0  0  0  0  0
  -24.5349    0.4128   28.7431 C   0  0  0  0  0  0  0  0  0  0  0  0
  -23.3062    0.0366   29.0393 C   0  0  0  0  0  0  0  0  0  0  0  0
  -22.1759    0.8277   28.6836 C   0  0  0  0  0  0  0  0  0  0  0  0
  -22.3552    1.8290   27.6875 C   0  0  0  0  0  0  0  0  0  0  0  0
  -24.5941    1.4954   27.7678 C   0  0  0  0  0  0  0  0  0  0  0  0
  -23.5500    2.1700   27.3300 C   0  0  0  0  0  0  0  0  0  0  0  0
  -28.9345   -2.7051   30.1299 O   0  0  0  0  0  0  0  0  0  0  0  0
  -29.2563   -2.8253   31.4702 C   0  0  0  0  0  0  0  0  0  0  0  0
  -29.8166   -4.1369   31.7480 C   0  0  0  0  0  0  0  0  0  0  0  0
  -29.3932   -5.0808   31.0951 F   0  0  0  0  0  0  0  0  0  0  0  0
  -31.1925   -4.1226   31.4812 F   0  0  0  0  0  0  0  0  0  0  0  0
  -29.6603   -4.5627   33.0288 F   0  0  0  0  0  0  0  0  0  0  0  0
  -28.2076   -2.5474   32.2457 F   0  0  0  0  0  0  0  0  0  0  0  0
  -30.1851   -1.8757   31.7833 F   0  0  0  0  0  0  0  0  0  0  0  0
  -24.1883   -1.8776   30.3842 C   0  0  0  0  0  0  0  0  0  0  0  0
  3  7  1  0
  6 13  1  0
 13 14  1  0
 14 15  1  0
 15 16  1  0
 15 17  1  0
 15 18  1  0
 14 19  1  0
 14 20  1  0
  4 21  1  0
  7  8  2  0
  8  9  1  0
  9 10  2  0
 10 12  1  0
 12 11  2  0
 11  7  1  0
  1  2  2  0
  2  3  1  0
  3  4  2  0
  4  5  1  0
  5  6  2  0
  6  1  1  0
M  END

$$$$
