No_3472-gen_results/8p0m/2024-11-27-11-27-31/
     RDKit          3D

 35 38  0  0  0  0  0  0  0  0999 V2000
  -28.0162   -0.8135   28.8779 C   0  0  0  0  0  0  0  0  0  0  0  0
  -27.0636   -0.1190   28.6079 C   0  0  0  0  0  0  0  0  0  0  0  0
  -26.9716    0.7139   27.5060 C   0  0  0  0  0  0  0  0  0  0  0  0
  -28.1053    0.7744   26.6421 C   0  0  0  0  0  0  0  0  0  0  0  0
  -29.2008    0.1044   27.0527 C   0  0  0  0  0  0  0  0  0  0  0  0
  -29.2096   -0.6029   28.1853 C   0  0  0  0  0  0  0  0  0  0  0  0
  -30.3702    0.2264   26.1604 C   0  0  0  0  0  0  0  0  0  0  0  0
  -31.3165   -0.4572   26.3805 N   0  0  0  0  0  0  0  0  0  0  0  0
  -30.4776    1.2142   25.4005 O   0  0  0  0  0  0  0  0  0  0  0  0
  -32.5460   -0.4556   25.5010 C   0  0  0  0  0  0  0  0  0  0  0  0
  -28.0536   -1.5648   30.0206 F   0  0  0  0  0  0  0  0  0  0  0  0
  -25.7145   -0.2127   29.4540 C   0  0  0  0  0  0  0  0  0  0  0  0
  -25.5482    0.5314   30.5058 C   0  0  0  0  0  0  0  0  0  0  0  0
  -24.3441    0.3729   31.2450 C   0  0  0  0  0  0  0  0  0  0  0  0
  -23.3679   -0.5563   30.8344 C   0  0  0  0  0  0  0  0  0  0  0  0
  -23.6579   -1.3727   29.7659 C   0  0  0  0  0  0  0  0  0  0  0  0
  -24.8271   -1.2458   29.0139 C   0  0  0  0  0  0  0  0  0  0  0  0
  -25.7170    1.4520   27.0716 C   0  0  0  0  0  0  0  0  0  0  0  0
  -25.6742    2.7731   27.3221 C   0  0  0  0  0  0  0  0  0  0  0  0
  -24.7392    0.7495   26.4008 C   0  0  0  0  0  0  0  0  0  0  0  0
  -24.4967    3.4633   27.0385 C   0  0  0  0  0  0  0  0  0  0  0  0
  -23.5637    1.4601   26.0692 C   0  0  0  0  0  0  0  0  0  0  0  0
  -23.4244    2.8211   26.3503 C   0  0  0  0  0  0  0  0  0  0  0  0
  -26.6198    1.7756   30.9784 Cl  0  0  0  0  0  0  0  0  0  0  0  0
  -26.6012    3.4554   28.0251 O   0  0  0  0  0  0  0  0  0  0  0  0
  -26.3132    4.5886   28.6502 C   0  0  0  0  0  0  0  0  0  0  0  0
  -26.9598    5.7668   28.0322 C   0  0  0  0  0  0  0  0  0  0  0  0
  -26.1663    6.8391   28.0202 C   0  0  0  0  0  0  0  0  0  0  0  0
  -26.3133    7.9650   27.2002 C   0  0  0  0  0  0  0  0  0  0  0  0
  -25.3649    9.0497   27.1600 C   0  0  0  0  0  0  0  0  0  0  0  0
  -24.2216    8.9781   27.9550 C   0  0  0  0  0  0  0  0  0  0  0  0
  -24.0013    7.8471   28.7747 C   0  0  0  0  0  0  0  0  0  0  0  0
  -24.8976    6.8333   28.7626 C   0  0  0  0  0  0  0  0  0  0  0  0
  -28.2529    6.0475   28.8304 C   0  0  0  0  0  0  0  0  0  0  0  0
  -29.2405    6.0091   28.5619 C   0  0  0  0  0  0  0  0  0  0  0  0
  5  7  1  0
  7  8  1  0
  7  9  2  0
  8 10  1  0
  1 11  1  0
  2 12  1  0
  3 18  1  0
 13 24  1  0
 19 25  1  0
 25 26  1  0
 26 27  1  0
 27 34  1  0
 34 35  2  0
 27 28  1  0
 12 13  2  0
 13 14  1  0
 14 15  2  0
 15 16  1  0
 16 17  2  0
 17 12  1  0
  1  2  2  0
  2  3  1  0
  3  4  2  0
  4  5  1  0
  5  6  2  0
  6  1  1  0
 18 19  2  0
 19 21  1  0
 21 23  2  0
 23 22  1  0
 22 20  2  0
 20 18  1  0
 28 29  2  0
 29 30  1  0
 30 31  2  0
 31 32  1  0
 32 33  2  0
 33 28  1  0
M  END

$$$$
