No_3463-gen_results/8p0m/2024-11-27-11-27-31/
     RDKit          3D

 27 29  0  0  0  0  0  0  0  0999 V2000
  -28.1229   -1.3353   28.4874 O   0  0  0  0  0  0  0  0  0  0  0  0
  -28.5208   -0.4363   29.0779 C   0  0  0  0  0  0  0  0  0  0  0  0
  -27.6655    0.1129   30.0346 C   0  0  0  0  0  0  0  0  0  0  0  0
  -29.7419    0.1102   28.8873 N   0  0  0  0  0  0  0  0  0  0  0  0
  -27.8398    1.2287   30.6424 C   0  0  0  0  0  0  0  0  0  0  0  0
  -30.6057   -0.3352   28.0357 C   0  0  0  0  0  0  0  0  0  0  0  0
  -26.3441   -0.6294   30.3279 C   0  0  0  0  0  0  0  0  0  0  0  0
  -25.4257   -0.0849   31.2829 C   0  0  0  0  0  0  0  0  0  0  0  0
  -25.7103    1.0915   31.9701 C   0  0  0  0  0  0  0  0  0  0  0  0
  -26.8891    1.8216   31.6122 C   0  0  0  0  0  0  0  0  0  0  0  0
  -31.6242    0.4340   27.7459 C   0  0  0  0  0  0  0  0  0  0  0  0
  -32.4628    0.3095   26.9044 C   0  0  0  0  0  0  0  0  0  0  0  0
  -32.4163   -0.9610   26.0573 C   0  0  0  0  0  0  0  0  0  0  0  0
  -31.3619   -1.8061   26.2547 C   0  0  0  0  0  0  0  0  0  0  0  0
  -30.4426   -1.4529   27.2107 C   0  0  0  0  0  0  0  0  0  0  0  0
  -27.1755    3.0861   32.2794 C   0  0  0  0  0  0  0  0  0  0  0  0
  -28.0157    3.1293   33.0671 C   0  0  0  0  0  0  0  0  0  0  0  0
  -26.2950    4.1751   31.8522 C   0  0  0  0  0  0  0  0  0  0  0  0
  -25.5050    3.9606   31.0210 F   0  0  0  0  0  0  0  0  0  0  0  0
  -26.5277    5.8721   32.5763 Br  0  0  0  0  0  0  0  0  0  0  0  0
  -29.3075    3.6320   32.7988 C   0  0  0  0  0  0  0  0  0  0  0  0
  -29.6044    4.3976   31.8221 C   0  0  0  0  0  0  0  0  0  0  0  0
  -30.9616    4.7503   31.4126 C   0  0  0  0  0  0  0  0  0  0  0  0
  -31.9580    4.1969   32.2269 C   0  0  0  0  0  0  0  0  0  0  0  0
  -31.7123    3.3705   33.2797 C   0  0  0  0  0  0  0  0  0  0  0  0
  -30.4379    3.0623   33.6203 C   0  0  0  0  0  0  0  0  0  0  0  0
  -27.7396    2.7791   34.5208 C   0  0  0  0  0  0  0  0  0  0  0  0
  1  2  2  0
  2  3  1  0
  2  4  1  0
  4  6  1  0
 10 16  1  0
 16 17  1  0
 16 18  1  0
 18 19  1  0
 18 20  1  0
 17 27  1  0
 17 21  1  0
  3  5  2  0
  5 10  1  0
 10  9  2  0
  9  8  1  0
  8  7  2  0
  7  3  1  0
  6 11  2  0
 11 12  1  0
 12 13  2  0
 13 14  1  0
 14 15  2  0
 15  6  1  0
 21 22  2  0
 22 23  1  0
 23 24  2  0
 24 25  1  0
 25 26  2  0
 26 21  1  0
M  END

$$$$
