No_307-gen_results/8p0m/2024-11-27-11-27-31/
     RDKit          3D

 15 15  0  0  0  0  0  0  0  0999 V2000
  -28.0162   -0.8135   28.8779 C   0  0  0  0  0  0  0  0  0  0  0  0
  -28.4690   -0.7850   29.8287 C   0  0  0  0  0  0  0  0  0  0  0  0
  -26.5042   -0.7777   28.8766 C   0  0  0  0  0  0  0  0  0  0  0  0
  -25.8103   -0.8531   30.1028 C   0  0  0  0  0  0  0  0  0  0  0  0
  -27.9906   -0.8916   31.2257 C   0  0  0  0  0  0  0  0  0  0  0  0
  -26.6042   -0.8676   31.2652 C   0  0  0  0  0  0  0  0  0  0  0  0
  -24.3894   -0.8050   30.1639 C   0  0  0  0  0  0  0  0  0  0  0  0
  -23.8172    0.4762   29.9118 C   0  0  0  0  0  0  0  0  0  0  0  0
  -24.1955    1.5984   30.1917 C   0  0  0  0  0  0  0  0  0  0  0  0
  -25.2178    1.7588   31.0540 N   0  0  0  0  0  0  0  0  0  0  0  0
  -25.1684    2.0788   32.1801 C   0  0  0  0  0  0  0  0  0  0  0  0
  -26.1620    2.8269   32.8393 C   0  0  0  0  0  0  0  0  0  0  0  0
  -26.2123    4.0638   32.6194 C   0  0  0  0  0  0  0  0  0  0  0  0
  -26.3744    4.8011   33.5564 F   0  0  0  0  0  0  0  0  0  0  0  0
  -25.1083    4.5213   31.9932 F   0  0  0  0  0  0  0  0  0  0  0  0
  4  7  1  0
  7  8  1  0
  8  9  1  0
  9 10  1  0
 10 11  1  0
 11 12  2  3
 12 13  1  0
 13 14  1  0
 13 15  1  0
  1  2  2  0
  2  5  1  0
  5  6  2  0
  6  4  1  0
  4  3  2  0
  3  1  1  0
M  END

$$$$
