No_3049-gen_results/8p0m/2024-11-27-11-27-31/
     RDKit          3D

 20 21  0  0  0  0  0  0  0  0999 V2000
  -28.0544   -1.0498   28.7246 N   0  0  0  0  0  0  0  0  0  0  0  0
  -26.9659   -0.4722   28.7709 C   0  0  0  0  0  0  0  0  0  0  0  0
  -25.9289   -1.0196   29.5059 C   0  0  0  0  0  0  0  0  0  0  0  0
  -26.1023   -2.2905   30.2023 C   0  0  0  0  0  0  0  0  0  0  0  0
  -27.3441   -2.8033   30.0964 C   0  0  0  0  0  0  0  0  0  0  0  0
  -28.3049   -2.1942   29.4440 C   0  0  0  0  0  0  0  0  0  0  0  0
  -26.6756    0.8041   28.1007 C   0  0  0  0  0  0  0  0  0  0  0  0
  -26.4448    1.8959   28.5610 C   0  0  0  0  0  0  0  0  0  0  0  0
  -26.6346    0.6489   26.6042 C   0  0  0  0  0  0  0  0  0  0  0  0
  -26.3729    1.7305   25.8083 C   0  0  0  0  0  0  0  0  0  0  0  0
  -26.1234    3.1021   27.8126 C   0  0  0  0  0  0  0  0  0  0  0  0
  -26.0975    2.9859   26.3816 C   0  0  0  0  0  0  0  0  0  0  0  0
  -25.8350    4.3894   28.4383 C   0  0  0  0  0  0  0  0  0  0  0  0
  -25.3404    5.2877   27.8734 O   0  0  0  0  0  0  0  0  0  0  0  0
  -25.7109    4.3718   29.8320 N   0  0  0  0  0  0  0  0  0  0  0  0
  -25.4338    5.5911   30.5530 C   0  0  0  0  0  0  0  0  0  0  0  0
  -25.3975    5.1971   32.0391 C   0  0  0  0  0  0  0  0  0  0  0  0
  -24.9226    4.1487   32.1440 F   0  0  0  0  0  0  0  0  0  0  0  0
  -24.5895    6.1057   32.7065 F   0  0  0  0  0  0  0  0  0  0  0  0
  -26.6098    5.3757   32.5899 F   0  0  0  0  0  0  0  0  0  0  0  0
  2  7  1  0
 11 13  1  0
 13 14  2  0
 13 15  1  0
 15 16  1  0
 16 17  1  0
 17 18  1  0
 17 19  1  0
 17 20  1  0
  1  2  2  0
  2  3  1  0
  3  4  2  0
  4  5  1  0
  5  6  2  0
  6  1  1  0
  7  8  2  0
  8 11  1  0
 11 12  2  0
 12 10  1  0
 10  9  2  0
  9  7  1  0
M  END

$$$$
