No_3460-gen_results/8p0m/2024-11-27-11-27-31/
     RDKit          3D

 24 25  0  0  0  0  0  0  0  0999 V2000
  -28.0162   -0.8135   28.8779 C   0  0  0  0  0  0  0  0  0  0  0  0
  -27.0636   -0.1190   28.6079 C   0  0  0  0  0  0  0  0  0  0  0  0
  -25.7647   -0.3897   29.0360 C   0  0  0  0  0  0  0  0  0  0  0  0
  -24.5516    0.4058   28.7646 C   0  0  0  0  0  0  0  0  0  0  0  0
  -23.2300    0.1178   29.2575 C   0  0  0  0  0  0  0  0  0  0  0  0
  -22.1393    0.9427   28.9224 C   0  0  0  0  0  0  0  0  0  0  0  0
  -27.8294   -1.9287   29.8545 C   0  0  0  0  0  0  0  0  0  0  0  0
  -26.5882   -2.3272   30.2682 C   0  0  0  0  0  0  0  0  0  0  0  0
  -25.4565   -1.5432   29.9146 C   0  0  0  0  0  0  0  0  0  0  0  0
  -22.2302    1.9089   27.8723 C   0  0  0  0  0  0  0  0  0  0  0  0
  -24.5538    1.4700   27.7617 C   0  0  0  0  0  0  0  0  0  0  0  0
  -23.4471    2.1666   27.3764 C   0  0  0  0  0  0  0  0  0  0  0  0
  -28.9808   -2.7737   30.2586 C   0  0  0  0  0  0  0  0  0  0  0  0
  -30.0534   -2.3918   30.1490 O   0  0  0  0  0  0  0  0  0  0  0  0
  -28.7027   -4.0548   30.5257 O   0  0  0  0  0  0  0  0  0  0  0  0
  -23.6060    3.0997   26.4103 O   0  0  0  0  0  0  0  0  0  0  0  0
  -31.0615   -2.7210   31.0422 C   0  0  0  0  0  0  0  0  0  0  0  0
  -30.9970   -2.3896   32.3110 C   0  0  0  0  0  0  0  0  0  0  0  0
  -30.8024   -1.1602   32.4750 F   0  0  0  0  0  0  0  0  0  0  0  0
  -32.0557   -2.8508   33.1147 F   0  0  0  0  0  0  0  0  0  0  0  0
  -29.9320   -3.0799   32.8547 F   0  0  0  0  0  0  0  0  0  0  0  0
  -32.2071   -2.0532   30.4924 F   0  0  0  0  0  0  0  0  0  0  0  0
  -31.3068   -3.9784   30.7282 F   0  0  0  0  0  0  0  0  0  0  0  0
  -24.9061    3.1413   25.8912 C   0  0  0  0  0  0  0  0  0  0  0  0
  3  4  1  0
  7 13  1  0
 13 14  1  0
 13 15  2  0
 12 16  1  0
 14 17  1  0
 17 18  1  0
 18 19  1  0
 18 20  1  0
 18 21  1  0
 17 22  1  0
 17 23  1  0
 16 24  1  0
  1  2  2  0
  2  3  1  0
  3  9  2  0
  9  8  1  0
  8  7  2  0
  7  1  1  0
  4  5  2  0
  5  6  1  0
  6 10  2  0
 10 12  1  0
 12 11  2  0
 11  4  1  0
M  END

$$$$
