No_3243-gen_results/8p0m/2024-11-27-11-27-31/
     RDKit          3D

 19 22  0  0  0  0  0  0  0  0999 V2000
  -28.0162   -0.8135   28.8779 C   0  0  0  0  0  0  0  0  0  0  0  0
  -27.0636   -0.1190   28.6079 C   0  0  0  0  0  0  0  0  0  0  0  0
  -25.7923   -0.4302   29.0761 C   0  0  0  0  0  0  0  0  0  0  0  0
  -24.5456    0.3494   28.8225 C   0  0  0  0  0  0  0  0  0  0  0  0
  -24.6586    1.4196   27.8878 C   0  0  0  0  0  0  0  0  0  0  0  0
  -25.9471    1.6811   27.3792 C   0  0  0  0  0  0  0  0  0  0  0  0
  -27.0439    0.9739   27.6871 C   0  0  0  0  0  0  0  0  0  0  0  0
  -29.1882   -0.1472   29.0918 N   0  0  0  0  0  0  0  0  0  0  0  0
  -29.7585    0.5259   28.4632 C   0  0  0  0  0  0  0  0  0  0  0  0
  -29.3228    1.5779   27.5260 C   0  0  0  0  0  0  0  0  0  0  0  0
  -28.2317    1.7578   27.2550 C   0  0  0  0  0  0  0  0  0  0  0  0
  -23.4241    2.0887   27.5357 C   0  0  0  0  0  0  0  0  0  0  0  0
  -22.2481    1.6988   28.0698 N   0  0  0  0  0  0  0  0  0  0  0  0
  -22.2046    0.6432   28.9780 C   0  0  0  0  0  0  0  0  0  0  0  0
  -23.2990   -0.0665   29.3602 C   0  0  0  0  0  0  0  0  0  0  0  0
  -31.2097    0.6000   28.6722 N   0  0  0  0  0  0  0  0  0  0  0  0
  -32.0401    1.2348   27.9652 C   0  0  0  0  0  0  0  0  0  0  0  0
  -31.6039    2.2051   27.0792 C   0  0  0  0  0  0  0  0  0  0  0  0
  -30.3476    2.4216   26.8405 C   0  0  0  0  0  0  0  0  0  0  0  0
  1  2  1  0
  1  8  1  0
  7 11  1  0
 11 10  1  0
  8  9  1  0
  2  3  2  0
  3  4  1  0
  5  6  1  0
  6  7  2  0
  7  2  1  0
  9 10  2  0
 10 19  1  0
 19 18  2  0
 18 17  1  0
 17 16  2  0
 16  9  1  0
  4  5  2  0
  5 12  1  0
 12 13  2  0
 13 14  1  0
 14 15  2  0
 15  4  1  0
M  END

$$$$
