No_323-gen_results/8p0m/2024-11-27-11-27-31/
     RDKit          3D

 28 31  0  0  0  0  0  0  0  0999 V2000
  -28.0162   -0.8135   28.8779 C   0  0  0  0  0  0  0  0  0  0  0  0
  -27.0636   -0.1190   28.6079 C   0  0  0  0  0  0  0  0  0  0  0  0
  -25.7647   -0.3897   29.0360 C   0  0  0  0  0  0  0  0  0  0  0  0
  -25.5296   -1.5302   29.9014 C   0  0  0  0  0  0  0  0  0  0  0  0
  -26.6888   -2.2893   30.1810 C   0  0  0  0  0  0  0  0  0  0  0  0
  -27.8727   -1.9508   29.7373 C   0  0  0  0  0  0  0  0  0  0  0  0
  -24.6993    0.3604   28.7753 F   0  0  0  0  0  0  0  0  0  0  0  0
  -29.2297   -2.9278   30.1916 Cl  0  0  0  0  0  0  0  0  0  0  0  0
  -26.9131    1.1273   27.6821 C   0  0  0  0  0  0  0  0  0  0  0  0
  -26.3087    1.1408   26.5913 C   0  0  0  0  0  0  0  0  0  0  0  0
  -27.8465    2.1918   27.9871 C   0  0  0  0  0  0  0  0  0  0  0  0
  -26.2670    1.9839   25.6023 C   0  0  0  0  0  0  0  0  0  0  0  0
  -27.8871    3.2456   27.0502 C   0  0  0  0  0  0  0  0  0  0  0  0
  -27.1160    3.1929   25.8769 C   0  0  0  0  0  0  0  0  0  0  0  0
  -28.6924    4.4593   27.2729 C   0  0  0  0  0  0  0  0  0  0  0  0
  -29.7339    4.6411   26.5684 C   0  0  0  0  0  0  0  0  0  0  0  0
  -30.4720    5.7995   26.6668 C   0  0  0  0  0  0  0  0  0  0  0  0
  -31.6314    6.1040   25.8931 C   0  0  0  0  0  0  0  0  0  0  0  0
  -32.1504    5.0389   25.1490 C   0  0  0  0  0  0  0  0  0  0  0  0
  -31.4632    3.8593   24.9759 C   0  0  0  0  0  0  0  0  0  0  0  0
  -30.3087    3.6984   25.7012 C   0  0  0  0  0  0  0  0  0  0  0  0
  -28.2197    5.3120   28.3370 C   0  0  0  0  0  0  0  0  0  0  0  0
  -27.1362    5.1005   29.1118 C   0  0  0  0  0  0  0  0  0  0  0  0
  -26.6491    6.0702   29.8823 C   0  0  0  0  0  0  0  0  0  0  0  0
  -27.2600    7.2717   30.0296 C   0  0  0  0  0  0  0  0  0  0  0  0
  -28.3797    7.5471   29.2619 C   0  0  0  0  0  0  0  0  0  0  0  0
  -28.8293    6.5876   28.3695 C   0  0  0  0  0  0  0  0  0  0  0  0
  -30.0026    6.8183   27.5478 C   0  0  0  0  0  0  0  0  0  0  0  0
  3  7  1  0
  6  8  1  0
  2  9  1  0
 13 15  1  0
 15 16  1  0
 15 22  1  0
 27 28  1  0
  1  2  2  0
  2  3  1  0
  3  4  2  0
  4  5  1  0
  5  6  2  0
  6  1  1  0
 22 23  2  0
 23 24  1  0
 24 25  2  0
 25 26  1  0
 26 27  2  0
 27 22  1  0
  9 10  2  0
 10 12  1  0
 12 14  2  0
 14 13  1  0
 13 11  2  0
 11  9  1  0
 16 17  2  0
 17 18  1  0
 18 19  2  0
 19 20  1  0
 20 21  2  0
 21 16  1  0
M  END

$$$$
