No_3003-gen_results/8p0m/2024-11-27-11-27-31/
     RDKit          3D

 12 12  0  0  0  0  0  0  0  0999 V2000
  -28.0162   -0.8135   28.8779 C   0  0  0  0  0  0  0  0  0  0  0  0
  -27.0636   -0.1189   28.6079 C   0  0  0  0  0  0  0  0  0  0  0  0
  -25.7647   -0.3897   29.0360 C   0  0  0  0  0  0  0  0  0  0  0  0
  -24.5517    0.4058   28.7646 C   0  0  0  0  0  0  0  0  0  0  0  0
  -24.6957    1.4480   27.7988 C   0  0  0  0  0  0  0  0  0  0  0  0
  -25.9755    1.7250   27.3077 C   0  0  0  0  0  0  0  0  0  0  0  0
  -27.0718    1.0134   27.6535 C   0  0  0  0  0  0  0  0  0  0  0  0
  -27.8748   -2.0191   29.1904 F   0  0  0  0  0  0  0  0  0  0  0  0
  -28.9917   -0.8236   27.9021 F   0  0  0  0  0  0  0  0  0  0  0  0
  -23.4866    2.2109   27.5144 C   0  0  0  0  0  0  0  0  0  0  0  0
  -23.5701    3.1722   26.7393 O   0  0  0  0  0  0  0  0  0  0  0  0
  -22.3627    2.0401   28.1532 O   0  0  0  0  0  0  0  0  0  0  0  0
  1  8  1  0
  1  9  1  0
  5 10  1  0
 10 11  2  0
 10 12  1  0
  1  2  1  0
  2  3  2  0
  3  4  1  0
  4  5  2  0
  5  6  1  0
  6  7  2  0
  7  2  1  0
M  END

$$$$
