No_3680-gen_results/8p0m/2024-11-27-11-27-31/
     RDKit          3D

 22 24  0  0  0  0  0  0  0  0999 V2000
  -28.1229   -1.3353   28.4874 O   0  0  0  0  0  0  0  0  0  0  0  0
  -27.4806   -0.4044   28.7094 C   0  0  0  0  0  0  0  0  0  0  0  0
  -27.1904    0.2460   29.5268 C   0  0  0  0  0  0  0  0  0  0  0  0
  -26.6871   -0.0001   27.4423 N   0  0  0  0  0  0  0  0  0  0  0  0
  -26.3501    1.4331   29.7417 C   0  0  0  0  0  0  0  0  0  0  0  0
  -25.8648    1.0936   27.4148 C   0  0  0  0  0  0  0  0  0  0  0  0
  -25.6589    1.8314   28.5720 C   0  0  0  0  0  0  0  0  0  0  0  0
  -27.8532   -0.1055   30.9653 C   0  0  0  0  0  0  0  0  0  0  0  0
  -29.0578    0.7168   31.1953 C   0  0  0  0  0  0  0  0  0  0  0  0
  -29.1079    1.7878   31.0928 C   0  0  0  0  0  0  0  0  0  0  0  0
  -30.3233    2.6249   31.5013 C   0  0  0  0  0  0  0  0  0  0  0  0
  -31.4030    1.8420   31.9071 C   0  0  0  0  0  0  0  0  0  0  0  0
  -30.1689   -0.0903   31.7953 C   0  0  0  0  0  0  0  0  0  0  0  0
  -31.2981    0.5243   32.0984 C   0  0  0  0  0  0  0  0  0  0  0  0
  -25.0886    1.4015   26.2426 C   0  0  0  0  0  0  0  0  0  0  0  0
  -23.9376    1.2992   26.1530 C   0  0  0  0  0  0  0  0  0  0  0  0
  -23.0301    1.2270   27.3334 C   0  0  0  0  0  0  0  0  0  0  0  0
  -21.6540    1.2874   27.2310 C   0  0  0  0  0  0  0  0  0  0  0  0
  -20.9446    1.1170   28.4894 C   0  0  0  0  0  0  0  0  0  0  0  0
  -21.5931    0.5788   29.5771 C   0  0  0  0  0  0  0  0  0  0  0  0
  -22.9366    0.3447   29.6346 C   0  0  0  0  0  0  0  0  0  0  0  0
  -23.6418    0.6642   28.5167 C   0  0  0  0  0  0  0  0  0  0  0  0
  1  2  2  0
  2  3  1  0
  2  4  1  0
  4  6  1  0
  5  7  1  0
  3  8  1  0
  8  9  1  0
  6 15  1  0
 15 16  1  0
 16 17  1  0
  3  5  1  0
  7  6  1  0
 17 18  2  0
 18 19  1  0
 19 20  2  0
 20 21  1  0
 21 22  2  0
 22 17  1  0
  9 10  2  0
 10 11  1  0
 11 12  2  0
 12 14  1  0
 14 13  2  0
 13  9  1  0
M  END

$$$$
