No_3588-gen_results/8p0m/2024-11-27-11-27-31/
     RDKit          3D

 19 20  0  0  0  0  0  0  0  0999 V2000
  -28.0162   -0.8135   28.8779 C   0  0  0  0  0  0  0  0  0  0  0  0
  -27.0636   -0.1190   28.6079 C   0  0  0  0  0  0  0  0  0  0  0  0
  -25.7647   -0.3897   29.0360 C   0  0  0  0  0  0  0  0  0  0  0  0
  -25.5296   -1.5302   29.9014 C   0  0  0  0  0  0  0  0  0  0  0  0
  -26.6888   -2.2893   30.1810 C   0  0  0  0  0  0  0  0  0  0  0  0
  -27.8727   -1.9508   29.7373 C   0  0  0  0  0  0  0  0  0  0  0  0
  -24.5491    0.4100   28.7341 C   0  0  0  0  0  0  0  0  0  0  0  0
  -24.1597    1.2751   29.5288 N   0  0  0  0  0  0  0  0  0  0  0  0
  -24.6248    1.7095   30.5825 C   0  0  0  0  0  0  0  0  0  0  0  0
  -25.5020    2.6369   30.8200 C   0  0  0  0  0  0  0  0  0  0  0  0
  -26.0351    2.9593   32.1184 C   0  0  0  0  0  0  0  0  0  0  0  0
  -25.9409    1.9428   33.0920 C   0  0  0  0  0  0  0  0  0  0  0  0
  -25.2102    0.8059   32.8995 C   0  0  0  0  0  0  0  0  0  0  0  0
  -24.5320    0.6415   31.6936 C   0  0  0  0  0  0  0  0  0  0  0  0
  -23.9039   -0.0000   27.7755 O   0  0  0  0  0  0  0  0  0  0  0  0
  -25.6025    3.7751   29.8429 C   0  0  0  0  0  0  0  0  0  0  0  0
  -25.3431    3.7403   28.8517 O   0  0  0  0  0  0  0  0  0  0  0  0
  -26.5858    4.7935   30.1621 N   0  0  0  0  0  0  0  0  0  0  0  0
  -26.8992    5.8241   29.2507 C   0  0  0  0  0  0  0  0  0  0  0  0
  3  7  1  0
  7  8  1  0
  8  9  1  0
  7 15  2  0
 10 16  1  0
 16 17  2  0
 16 18  1  0
 18 19  1  0
  1  2  2  0
  2  3  1  0
  3  4  2  0
  4  5  1  0
  5  6  2  0
  6  1  1  0
  9 10  2  0
 10 11  1  0
 11 12  2  0
 12 13  1  0
 13 14  2  0
 14  9  1  0
M  END

$$$$
