No_3978-gen_results/8p0m/2024-11-27-11-27-31/
     RDKit          3D

 27 29  0  0  0  0  0  0  0  0999 V2000
  -28.0162   -0.8135   28.8779 C   0  0  0  0  0  0  0  0  0  0  0  0
  -28.4690   -0.7850   29.8287 C   0  0  0  0  0  0  0  0  0  0  0  0
  -26.5455   -0.8762   28.8500 C   0  0  0  0  0  0  0  0  0  0  0  0
  -25.8041   -1.0324   30.0571 C   0  0  0  0  0  0  0  0  0  0  0  0
  -27.9437   -0.9869   31.2075 C   0  0  0  0  0  0  0  0  0  0  0  0
  -26.5825   -1.0386   31.2231 C   0  0  0  0  0  0  0  0  0  0  0  0
  -24.3810   -1.1082   30.0855 C   0  0  0  0  0  0  0  0  0  0  0  0
  -23.7054    0.0955   29.8440 C   0  0  0  0  0  0  0  0  0  0  0  0
  -22.4285    0.1160   29.2171 C   0  0  0  0  0  0  0  0  0  0  0  0
  -21.8149    1.2942   28.8765 C   0  0  0  0  0  0  0  0  0  0  0  0
  -24.1974    1.3766   30.2708 C   0  0  0  0  0  0  0  0  0  0  0  0
  -23.6703    2.5777   29.8431 C   0  0  0  0  0  0  0  0  0  0  0  0
  -22.4202    2.5641   29.1385 C   0  0  0  0  0  0  0  0  0  0  0  0
  -30.0890   -0.7018   29.8678 C   0  0  0  0  0  0  0  0  0  0  0  0
  -30.7856   -1.4706   30.3480 O   0  0  0  0  0  0  0  0  0  0  0  0
  -30.5524    0.3448   29.2659 O   0  0  0  0  0  0  0  0  0  0  0  0
  -25.7884   -0.7830   27.6748 N   0  0  0  0  0  0  0  0  0  0  0  0
  -25.7041    0.3794   26.8444 C   0  0  0  0  0  0  0  0  0  0  0  0
  -24.9386    0.3470   25.7149 C   0  0  0  0  0  0  0  0  0  0  0  0
  -26.3382    1.5805   27.2493 C   0  0  0  0  0  0  0  0  0  0  0  0
  -26.1855    2.7457   26.5199 C   0  0  0  0  0  0  0  0  0  0  0  0
  -26.7764    3.9138   26.9918 C   0  0  0  0  0  0  0  0  0  0  0  0
  -27.5449    3.8598   28.1414 C   0  0  0  0  0  0  0  0  0  0  0  0
  -27.7354    2.7043   28.8666 C   0  0  0  0  0  0  0  0  0  0  0  0
  -27.1188    1.6164   28.4514 C   0  0  0  0  0  0  0  0  0  0  0  0
  -23.9415   -1.6483   31.4661 C   0  0  0  0  0  0  0  0  0  0  0  0
  -23.9553   -2.2628   29.0994 C   0  0  0  0  0  0  0  0  0  0  0  0
  4  7  1  0
  7  8  1  0
  2 14  1  0
 14 15  2  0
 14 16  1  0
  3 17  1  0
 17 18  1  0
 18 19  2  0
 18 20  1  0
  7 26  1  0
  7 27  1  0
  8  9  2  0
  9 10  1  0
 10 13  2  0
 13 12  1  0
 12 11  2  0
 11  8  1  0
  1  2  2  0
  2  5  1  0
  5  6  2  0
  6  4  1  0
  4  3  2  0
  3  1  1  0
 20 21  2  0
 21 22  1  0
 22 23  2  0
 23 24  1  0
 24 25  2  0
 25 20  1  0
M  END

$$$$
