No_3829-gen_results/8p0m/2024-11-27-11-27-31/
     RDKit          3D

 27 29  0  0  0  0  0  0  0  0999 V2000
  -28.0162   -0.8135   28.8779 C   0  0  0  0  0  0  0  0  0  0  0  0
  -28.4690   -0.7850   29.8287 C   0  0  0  0  0  0  0  0  0  0  0  0
  -26.5455   -0.8762   28.8500 C   0  0  0  0  0  0  0  0  0  0  0  0
  -25.6825   -0.7773   27.6829 C   0  0  0  0  0  0  0  0  0  0  0  0
  -27.9181   -1.0034   31.1877 C   0  0  0  0  0  0  0  0  0  0  0  0
  -26.5308   -1.0794   31.2463 C   0  0  0  0  0  0  0  0  0  0  0  0
  -25.7798   -1.0462   30.0905 C   0  0  0  0  0  0  0  0  0  0  0  0
  -25.8976    0.2387   26.7449 C   0  0  0  0  0  0  0  0  0  0  0  0
  -25.6318    1.4984   27.0379 C   0  0  0  0  0  0  0  0  0  0  0  0
  -24.8915    1.8300   28.2575 C   0  0  0  0  0  0  0  0  0  0  0  0
  -24.6120    3.2215   28.5006 C   0  0  0  0  0  0  0  0  0  0  0  0
  -25.0213    4.1772   27.5294 C   0  0  0  0  0  0  0  0  0  0  0  0
  -25.6030    3.8239   26.3386 C   0  0  0  0  0  0  0  0  0  0  0  0
  -25.9215    2.4939   26.1337 C   0  0  0  0  0  0  0  0  0  0  0  0
  -26.3815   -0.1385   25.4741 C   0  0  0  0  0  0  0  0  0  0  0  0
  -27.2043    0.4292   24.7016 N   0  0  0  0  0  0  0  0  0  0  0  0
  -28.5136    0.5272   24.8937 C   0  0  0  0  0  0  0  0  0  0  0  0
  -29.3551    1.1866   24.0073 C   0  0  0  0  0  0  0  0  0  0  0  0
  -30.6957    1.1630   24.0749 C   0  0  0  0  0  0  0  0  0  0  0  0
  -31.3071    0.4939   25.1422 C   0  0  0  0  0  0  0  0  0  0  0  0
  -30.5513   -0.2412   26.0040 C   0  0  0  0  0  0  0  0  0  0  0  0
  -29.1528   -0.2368   25.9091 C   0  0  0  0  0  0  0  0  0  0  0  0
  -24.4773   -1.1977   30.1497 N   0  0  0  0  0  0  0  0  0  0  0  0
  -23.7243   -0.4958   31.0136 C   0  0  0  0  0  0  0  0  0  0  0  0
  -23.8240   -2.2908   29.5167 C   0  0  0  0  0  0  0  0  0  0  0  0
  -22.6646    0.3717   30.5465 C   0  0  0  0  0  0  0  0  0  0  0  0
  -24.1805   -0.1996   32.2568 O   0  0  0  0  0  0  0  0  0  0  0  0
  3  4  1  0
  4  8  1  0
  8 15  1  0
 15 16  2  3
 16 17  1  0
  7 23  1  0
 23 24  1  0
 23 25  1  0
 24 26  1  0
 24 27  2  0
  8  9  1  0
  9 10  2  0
 10 11  1  0
 11 12  2  0
 12 13  1  0
 13 14  2  0
 14  9  1  0
 17 18  2  0
 18 19  1  0
 19 20  2  0
 20 21  1  0
 21 22  2  0
 22 17  1  0
  1  2  2  0
  2  5  1  0
  5  6  2  0
  6  7  1  0
  7  3  2  0
  3  1  1  0
M  END

$$$$
