No_3187-gen_results/8p0m/2024-11-27-11-27-31/
     RDKit          3D

 26 28  0  0  0  0  0  0  0  0999 V2000
  -28.0162   -0.8135   28.8779 C   0  0  0  0  0  0  0  0  0  0  0  0
  -28.4690   -0.7850   29.8287 C   0  0  0  0  0  0  0  0  0  0  0  0
  -26.5455   -0.8762   28.8500 C   0  0  0  0  0  0  0  0  0  0  0  0
  -25.8041   -1.0324   30.0571 C   0  0  0  0  0  0  0  0  0  0  0  0
  -27.9437   -0.9869   31.2075 C   0  0  0  0  0  0  0  0  0  0  0  0
  -26.5825   -1.0386   31.2231 C   0  0  0  0  0  0  0  0  0  0  0  0
  -24.3810   -1.1082   30.0855 C   0  0  0  0  0  0  0  0  0  0  0  0
  -23.7055    0.0955   29.8440 C   0  0  0  0  0  0  0  0  0  0  0  0
  -22.4285    0.1160   29.2171 C   0  0  0  0  0  0  0  0  0  0  0  0
  -21.8149    1.2942   28.8765 C   0  0  0  0  0  0  0  0  0  0  0  0
  -24.1974    1.3766   30.2708 C   0  0  0  0  0  0  0  0  0  0  0  0
  -25.4179    1.4203   31.0567 C   0  0  0  0  0  0  0  0  0  0  0  0
  -20.7674    1.2145   27.8638 C   0  0  0  0  0  0  0  0  0  0  0  0
  -25.7878    2.8981   31.3953 C   0  0  0  0  0  0  0  0  0  0  0  0
  -26.8155    3.2664   30.9946 C   0  0  0  0  0  0  0  0  0  0  0  0
  -27.2201    4.6925   31.2219 C   0  0  0  0  0  0  0  0  0  0  0  0
  -26.3621    5.4798   31.9708 C   0  0  0  0  0  0  0  0  0  0  0  0
  -25.1620    4.9769   32.4832 C   0  0  0  0  0  0  0  0  0  0  0  0
  -24.8612    3.6560   32.1656 C   0  0  0  0  0  0  0  0  0  0  0  0
  -25.8455   -0.8443   27.7224 F   0  0  0  0  0  0  0  0  0  0  0  0
  -20.2844    0.0210   27.8615 N   0  0  0  0  0  0  0  0  0  0  0  0
  -21.4681   -0.7604   28.5942 N   0  0  0  0  0  0  0  0  0  0  0  0
  -30.0985   -0.7549   29.8242 C   0  0  0  0  0  0  0  0  0  0  0  0
  -30.6667    0.2279   30.4255 O   0  0  0  0  0  0  0  0  0  0  0  0
  -30.7094   -1.7977   29.5932 O   0  0  0  0  0  0  0  0  0  0  0  0
  -23.9675    6.0663   33.4221 Br  0  0  0  0  0  0  0  0  0  0  0  0
  4  7  1  0
  7  8  1  0
  8  9  2  3
  9 10  1  0
  8 11  1  0
 11 12  1  0
 10 13  1  0
  3 20  1  0
 13 21  2  0
  9 22  1  0
 21 22  1  0
  2 23  1  0
 23 24  2  0
 23 25  1  0
 18 26  1  0
 12 14  1  0
 14 15  2  0
 15 16  1  0
 16 17  2  0
 17 18  1  0
 18 19  2  0
 19 14  1  0
  1  2  2  0
  2  5  1  0
  5  6  2  0
  6  4  1  0
  4  3  2  0
  3  1  1  0
M  END

$$$$
