No_3913-gen_results/8p0m/2024-11-27-11-27-31/
     RDKit          3D

 18 21  0  0  0  0  0  0  0  0999 V2000
  -28.0162   -0.8135   28.8779 C   0  0  0  0  0  0  0  0  0  0  0  0
  -27.0636   -0.1190   28.6079 C   0  0  0  0  0  0  0  0  0  0  0  0
  -25.7923   -0.4302   29.0761 C   0  0  0  0  0  0  0  0  0  0  0  0
  -25.5756   -1.5654   29.9363 C   0  0  0  0  0  0  0  0  0  0  0  0
  -26.7354   -2.3004   30.2173 C   0  0  0  0  0  0  0  0  0  0  0  0
  -27.9184   -1.9537   29.7629 C   0  0  0  0  0  0  0  0  0  0  0  0
  -27.1059    1.0338   27.8185 N   0  0  0  0  0  0  0  0  0  0  0  0
  -27.8211    1.6842   27.5015 C   0  0  0  0  0  0  0  0  0  0  0  0
  -27.6759    2.7503   26.5051 C   0  0  0  0  0  0  0  0  0  0  0  0
  -26.3302    2.6763   26.0288 C   0  0  0  0  0  0  0  0  0  0  0  0
  -25.7902    1.5854   26.9461 C   0  0  0  0  0  0  0  0  0  0  0  0
  -24.5115    1.0848   26.9512 C   0  0  0  0  0  0  0  0  0  0  0  0
  -23.5259    1.9944   26.4541 C   0  0  0  0  0  0  0  0  0  0  0  0
  -22.1528    1.7014   26.8107 C   0  0  0  0  0  0  0  0  0  0  0  0
  -21.8694    0.8464   27.8877 C   0  0  0  0  0  0  0  0  0  0  0  0
  -22.8712    0.0288   28.4418 C   0  0  0  0  0  0  0  0  0  0  0  0
  -24.1250    0.1693   28.0173 C   0  0  0  0  0  0  0  0  0  0  0  0
  -24.8279   -0.8177   28.1799 O   0  0  0  0  0  0  0  0  0  0  0  0
  2  7  1  0
  7  8  1  0
  8  9  2  0
  9 10  1  0
  7 11  1  0
 10 11  2  0
 11 12  1  0
  3 18  1  0
 17 18  1  0
 12 13  2  0
 13 14  1  0
 14 15  2  0
 15 16  1  0
 16 17  2  0
 17 12  1  0
  1  2  2  0
  2  3  1  0
  3  4  2  0
  4  5  1  0
  5  6  2  0
  6  1  1  0
M  END

$$$$
