No_3192-gen_results/8p0m/2024-11-27-11-27-31/
     RDKit          3D

 35 39  0  0  0  0  0  0  0  0999 V2000
  -28.0162   -0.8135   28.8779 C   0  0  0  0  0  0  0  0  0  0  0  0
  -27.0636   -0.1189   28.6079 C   0  0  0  0  0  0  0  0  0  0  0  0
  -27.0010    0.6913   27.4910 C   0  0  0  0  0  0  0  0  0  0  0  0
  -27.1778    1.9037   27.5632 C   0  0  0  0  0  0  0  0  0  0  0  0
  -28.0594   -1.3960   30.2136 C   0  0  0  0  0  0  0  0  0  0  0  0
  -26.8947   -1.6080   30.9179 C   0  0  0  0  0  0  0  0  0  0  0  0
  -25.7839   -0.2253   29.3757 C   0  0  0  0  0  0  0  0  0  0  0  0
  -25.7520   -0.9581   30.5315 C   0  0  0  0  0  0  0  0  0  0  0  0
  -27.1106    2.7938   26.3675 C   0  0  0  0  0  0  0  0  0  0  0  0
  -26.8464    2.2343   25.1274 C   0  0  0  0  0  0  0  0  0  0  0  0
  -26.6616    0.1690   26.1513 C   0  0  0  0  0  0  0  0  0  0  0  0
  -26.6000    0.9387   25.0298 C   0  0  0  0  0  0  0  0  0  0  0  0
  -29.2919   -2.1821   30.6338 C   0  0  0  0  0  0  0  0  0  0  0  0
  -29.2931   -3.3184   30.9677 O   0  0  0  0  0  0  0  0  0  0  0  0
  -30.4465   -1.5120   30.5456 N   0  0  0  0  0  0  0  0  0  0  0  0
  -31.7067   -2.1410   30.8676 C   0  0  0  0  0  0  0  0  0  0  0  0
  -32.6957   -1.6369   30.2798 C   0  0  0  0  0  0  0  0  0  0  0  0
  -32.6595   -0.3769   29.6701 C   0  0  0  0  0  0  0  0  0  0  0  0
  -31.4252    0.2380   29.3293 C   0  0  0  0  0  0  0  0  0  0  0  0
  -30.4210   -0.3525   29.7408 C   0  0  0  0  0  0  0  0  0  0  0  0
  -31.4666    1.4928   28.5529 C   0  0  0  0  0  0  0  0  0  0  0  0
  -30.8590    2.6647   29.1101 C   0  0  0  0  0  0  0  0  0  0  0  0
  -31.8332    1.4985   27.1951 C   0  0  0  0  0  0  0  0  0  0  0  0
  -30.8339    3.8499   28.4152 C   0  0  0  0  0  0  0  0  0  0  0  0
  -31.7683    2.7239   26.4630 C   0  0  0  0  0  0  0  0  0  0  0  0
  -31.2560    3.8756   27.0932 C   0  0  0  0  0  0  0  0  0  0  0  0
  -30.4170    2.7158   30.5334 C   0  0  0  0  0  0  0  0  0  0  0  0
  -30.9355    3.6559   31.3388 C   0  0  0  0  0  0  0  0  0  0  0  0
  -30.2734    3.8458   32.4363 C   0  0  0  0  0  0  0  0  0  0  0  0
  -29.2915    2.0256   31.0006 C   0  0  0  0  0  0  0  0  0  0  0  0
  -28.6399    2.1886   32.2068 C   0  0  0  0  0  0  0  0  0  0  0  0
  -29.2370    3.1708   33.0158 C   0  0  0  0  0  0  0  0  0  0  0  0
  -27.5208    1.4244   32.6843 C   0  0  0  0  0  0  0  0  0  0  0  0
  -27.7230    0.6404   33.9225 C   0  0  0  0  0  0  0  0  0  0  0  0
  -26.2480    2.2942   32.8848 C   0  0  0  0  0  0  0  0  0  0  0  0
  2  3  1  0
  5 13  1  0
 13 14  2  0
 13 15  1  0
 15 16  1  0
 17 18  1  0
 15 20  1  0
 19 20  1  0
 19 21  1  0
 22 27  1  0
 31 33  1  0
 33 34  1  0
 33 35  1  0
 16 17  1  0
 18 19  1  0
  1  2  2  0
  2  7  1  0
  7  8  2  0
  8  6  1  0
  6  5  2  0
  5  1  1  0
 21 22  2  0
 22 24  1  0
 24 26  2  0
 26 25  1  0
 25 23  2  0
 23 21  1  0
  3  4  2  0
  4  9  1  0
  9 10  2  0
 10 12  1  0
 12 11  2  0
 11  3  1  0
 27 28  2  0
 28 29  1  0
 29 32  2  0
 32 31  1  0
 31 30  2  0
 30 27  1  0
M  END

$$$$
