No_3850-gen_results/8p0m/2024-11-27-11-27-31/
     RDKit          3D

 27 28  0  0  0  0  0  0  0  0999 V2000
  -28.0162   -0.8135   28.8779 C   0  0  0  0  0  0  0  0  0  0  0  0
  -28.4690   -0.7850   29.8287 C   0  0  0  0  0  0  0  0  0  0  0  0
  -26.5455   -0.8762   28.8500 C   0  0  0  0  0  0  0  0  0  0  0  0
  -25.8041   -1.0324   30.0571 C   0  0  0  0  0  0  0  0  0  0  0  0
  -26.5373   -1.0386   31.2171 C   0  0  0  0  0  0  0  0  0  0  0  0
  -27.8843   -0.9532   31.1862 C   0  0  0  0  0  0  0  0  0  0  0  0
  -24.3655   -1.1134   30.0483 C   0  0  0  0  0  0  0  0  0  0  0  0
  -23.6925    0.1188   29.9185 C   0  0  0  0  0  0  0  0  0  0  0  0
  -23.9863    1.2743   30.4522 C   0  0  0  0  0  0  0  0  0  0  0  0
  -22.4570    0.1164   29.0535 C   0  0  0  0  0  0  0  0  0  0  0  0
  -21.9636    1.2534   28.4456 C   0  0  0  0  0  0  0  0  0  0  0  0
  -23.5564    2.5509   29.9489 C   0  0  0  0  0  0  0  0  0  0  0  0
  -22.4424    2.5302   28.9909 C   0  0  0  0  0  0  0  0  0  0  0  0
  -25.8186   -0.8607   27.7341 F   0  0  0  0  0  0  0  0  0  0  0  0
  -30.0678   -0.7000   29.8985 C   0  0  0  0  0  0  0  0  0  0  0  0
  -30.5292   -0.2114   29.0203 O   0  0  0  0  0  0  0  0  0  0  0  0
  -30.7179   -1.4647   30.7781 O   0  0  0  0  0  0  0  0  0  0  0  0
  -23.8248   -2.2201   30.2434 O   0  0  0  0  0  0  0  0  0  0  0  0
  -31.8031   -1.8599   30.6867 C   0  0  0  0  0  0  0  0  0  0  0  0
  -32.0029   -3.0424   30.2099 C   0  0  0  0  0  0  0  0  0  0  0  0
  -31.4138   -4.0485   30.5951 O   0  0  0  0  0  0  0  0  0  0  0  0
  -33.0474   -3.3712   29.3480 N   0  0  0  0  0  0  0  0  0  0  0  0
  -33.0591   -3.7848   28.4133 C   0  0  0  0  0  0  0  0  0  0  0  0
  -33.9559   -3.7911   27.5213 C   0  0  0  0  0  0  0  0  0  0  0  0
  -31.9411   -4.4395   27.8992 F   0  0  0  0  0  0  0  0  0  0  0  0
  -34.1053   -4.5020   26.6552 F   0  0  0  0  0  0  0  0  0  0  0  0
  -34.0260   -2.5142   26.8643 F   0  0  0  0  0  0  0  0  0  0  0  0
  4  7  1  0
  7  8  1  0
  3 14  1  0
  2 15  1  0
 15 16  2  0
 15 17  1  0
  7 18  2  0
 17 19  1  0
 19 20  1  0
 20 21  2  0
 20 22  1  0
 22 23  1  0
 23 24  2  3
 23 25  1  0
 24 26  1  0
 24 27  1  0
  1  2  2  0
  2  6  1  0
  6  5  2  0
  5  4  1  0
  4  3  2  0
  3  1  1  0
  8  9  2  0
  9 12  1  0
 12 13  2  0
 13 11  1  0
 11 10  2  0
 10  8  1  0
M  END

$$$$
