No_3608-gen_results/8p0m/2024-11-27-11-27-31/
     RDKit          3D

 13 14  0  0  0  0  0  0  0  0999 V2000
  -28.0162   -0.8135   28.8779 C   0  0  0  0  0  0  0  0  0  0  0  0
  -27.0636   -0.1190   28.6079 C   0  0  0  0  0  0  0  0  0  0  0  0
  -27.0425    0.2440   27.4277 F   0  0  0  0  0  0  0  0  0  0  0  0
  -27.9558   -1.5526   30.1905 C   0  0  0  0  0  0  0  0  0  0  0  0
  -26.8182   -1.3634   31.0291 C   0  0  0  0  0  0  0  0  0  0  0  0
  -25.7331   -0.6388   30.6101 C   0  0  0  0  0  0  0  0  0  0  0  0
  -25.8439   -0.0135   29.3153 C   0  0  0  0  0  0  0  0  0  0  0  0
  -24.6802    0.7933   28.9267 C   0  0  0  0  0  0  0  0  0  0  0  0
  -23.4498    0.3604   29.1362 C   0  0  0  0  0  0  0  0  0  0  0  0
  -22.2939    1.0679   28.6655 C   0  0  0  0  0  0  0  0  0  0  0  0
  -22.4447    1.6497   27.4087 C   0  0  0  0  0  0  0  0  0  0  0  0
  -23.7179    2.0885   27.0074 C   0  0  0  0  0  0  0  0  0  0  0  0
  -24.8534    1.5351   27.6840 C   0  0  0  0  0  0  0  0  0  0  0  0
  2  3  1  0
  7  8  1  0
  1  2  2  0
  2  7  1  0
  7  6  2  0
  6  5  1  0
  5  4  2  0
  4  1  1  0
  8  9  2  0
  9 10  1  0
 10 11  2  0
 11 12  1  0
 12 13  2  0
 13  8  1  0
M  END

$$$$
