No_3520-gen_results/8p0m/2024-11-27-11-27-31/
     RDKit          3D

 20 22  0  0  0  0  0  0  0  0999 V2000
  -28.0162   -0.8135   28.8779 C   0  0  0  0  0  0  0  0  0  0  0  0
  -28.4690   -0.7850   29.8287 C   0  0  0  0  0  0  0  0  0  0  0  0
  -28.1960    0.3478   28.0550 C   0  0  0  0  0  0  0  0  0  0  0  0
  -29.0191    1.3501   28.3782 C   0  0  0  0  0  0  0  0  0  0  0  0
  -29.4107    0.1803   30.3782 C   0  0  0  0  0  0  0  0  0  0  0  0
  -29.6059    1.2495   29.6193 C   0  0  0  0  0  0  0  0  0  0  0  0
  -27.5688    0.5466   26.7688 N   0  0  0  0  0  0  0  0  0  0  0  0
  -28.1246    0.5830   25.6238 C   0  0  0  0  0  0  0  0  0  0  0  0
  -26.1049    0.4596   26.7514 C   0  0  0  0  0  0  0  0  0  0  0  0
  -25.3588    0.0347   27.7629 C   0  0  0  0  0  0  0  0  0  0  0  0
  -24.0212    0.3092   27.9085 C   0  0  0  0  0  0  0  0  0  0  0  0
  -23.4081    1.0954   26.9285 C   0  0  0  0  0  0  0  0  0  0  0  0
  -24.1538    1.6458   25.8819 C   0  0  0  0  0  0  0  0  0  0  0  0
  -25.5388    1.4585   25.8483 C   0  0  0  0  0  0  0  0  0  0  0  0
  -28.7697    1.1039   24.8842 C   0  0  0  0  0  0  0  0  0  0  0  0
  -29.3621    0.2216   23.9642 C   0  0  0  0  0  0  0  0  0  0  0  0
  -27.7467   -0.4809   24.9664 O   0  0  0  0  0  0  0  0  0  0  0  0
  -28.5337   -0.7630   23.9560 C   0  0  0  0  0  0  0  0  0  0  0  0
  -21.7703    1.5035   27.1548 Cl  0  0  0  0  0  0  0  0  0  0  0  0
  -29.9659    2.1283   25.5331 C   0  0  0  0  0  0  0  0  0  0  0  0
  3  7  1  0
  7  8  1  0
  7  9  1  0
  8 15  2  0
 15 16  1  0
  8 17  1  0
 16 18  1  0
 17 18  1  0
 12 19  1  0
 15 20  1  0
  9 10  2  0
 10 11  1  0
 11 12  2  0
 12 13  1  0
 13 14  2  0
 14  9  1  0
  1  2  2  0
  2  5  1  0
  5  6  2  0
  6  4  1  0
  4  3  2  0
  3  1  1  0
M  END

$$$$
