No_3215-gen_results/8p0m/2024-11-27-11-27-31/
     RDKit          3D

 12 12  0  0  0  0  0  0  0  0999 V2000
  -28.0544   -1.0498   28.7246 N   0  0  0  0  0  0  0  0  0  0  0  0
  -26.9659   -0.4722   28.7709 C   0  0  0  0  0  0  0  0  0  0  0  0
  -25.9289   -1.0196   29.5059 C   0  0  0  0  0  0  0  0  0  0  0  0
  -24.6309   -0.4459   29.5994 C   0  0  0  0  0  0  0  0  0  0  0  0
  -24.4031    0.7890   28.9309 C   0  0  0  0  0  0  0  0  0  0  0  0
  -23.1703    1.4152   28.9450 C   0  0  0  0  0  0  0  0  0  0  0  0
  -26.6071    0.5616   27.8155 C   0  0  0  0  0  0  0  0  0  0  0  0
  -25.3541    1.2851   27.9483 C   0  0  0  0  0  0  0  0  0  0  0  0
  -22.3726    1.1955   29.8606 O   0  0  0  0  0  0  0  0  0  0  0  0
  -22.7096    2.1663   27.9683 O   0  0  0  0  0  0  0  0  0  0  0  0
  -29.1044   -0.1866   28.8597 C   0  0  0  0  0  0  0  0  0  0  0  0
  -29.1538    0.8925   28.5203 O   0  0  0  0  0  0  0  0  0  0  0  0
  1  2  1  0
  5  6  1  0
  6  9  1  0
  6 10  2  0
  1 11  2  0
 11 12  2  0
  2  3  2  0
  3  4  1  0
  4  5  2  0
  5  8  1  0
  8  7  2  0
  7  2  1  0
M  END

$$$$
