No_3038-gen_results/8p0m/2024-11-27-11-27-31/
     RDKit          3D

 25 28  0  0  0  0  0  0  0  0999 V2000
  -28.0162   -0.8135   28.8779 C   0  0  0  0  0  0  0  0  0  0  0  0
  -27.0636   -0.1189   28.6079 C   0  0  0  0  0  0  0  0  0  0  0  0
  -25.7923   -0.4302   29.0761 C   0  0  0  0  0  0  0  0  0  0  0  0
  -25.5756   -1.5654   29.9363 C   0  0  0  0  0  0  0  0  0  0  0  0
  -26.7354   -2.3004   30.2173 C   0  0  0  0  0  0  0  0  0  0  0  0
  -27.9184   -1.9537   29.7629 C   0  0  0  0  0  0  0  0  0  0  0  0
  -27.1057    1.1023   27.7593 C   0  0  0  0  0  0  0  0  0  0  0  0
  -27.8576    1.5309   27.2156 C   0  0  0  0  0  0  0  0  0  0  0  0
  -27.8433    2.7213   26.2861 C   0  0  0  0  0  0  0  0  0  0  0  0
  -26.6217    3.3253   26.0566 C   0  0  0  0  0  0  0  0  0  0  0  0
  -25.4854    2.7960   26.6725 C   0  0  0  0  0  0  0  0  0  0  0  0
  -25.6222    1.7365   27.5193 C   0  0  0  0  0  0  0  0  0  0  0  0
  -29.0776   -2.7599   30.2148 C   0  0  0  0  0  0  0  0  0  0  0  0
  -28.9889   -4.0379   30.5192 N   0  0  0  0  0  0  0  0  0  0  0  0
  -30.2220   -2.2336   30.2321 O   0  0  0  0  0  0  0  0  0  0  0  0
  -30.0577   -4.9336   30.8329 C   0  0  0  0  0  0  0  0  0  0  0  0
  -29.8926   -5.6219   31.9648 C   0  0  0  0  0  0  0  0  0  0  0  0
  -30.8100   -6.7239   32.2558 C   0  0  0  0  0  0  0  0  0  0  0  0
  -31.8531   -6.9778   31.3456 C   0  0  0  0  0  0  0  0  0  0  0  0
  -31.9201   -6.1867   30.1788 C   0  0  0  0  0  0  0  0  0  0  0  0
  -30.9680   -5.1955   29.9055 C   0  0  0  0  0  0  0  0  0  0  0  0
  -24.1874    3.4150   26.4335 C   0  0  0  0  0  0  0  0  0  0  0  0
  -23.0934    2.6518   26.8239 N   0  0  0  0  0  0  0  0  0  0  0  0
  -23.1346    1.8486   27.8838 C   0  0  0  0  0  0  0  0  0  0  0  0
  -24.3955    1.2179   28.1429 C   0  0  0  0  0  0  0  0  0  0  0  0
  2  7  1  0
  6 13  1  0
 13 14  1  0
 13 15  2  0
 14 16  1  0
  1  2  2  0
  2  3  1  0
  3  4  2  0
  4  5  1  0
  5  6  2  0
  6  1  1  0
 12 25  2  0
 25 24  1  0
 24 23  2  0
 23 22  1  0
 22 11  2  0
  7  8  2  0
  8  9  1  0
  9 10  2  0
 10 11  1  0
 11 12  1  0
 12  7  1  0
 16 17  2  0
 17 18  1  0
 18 19  2  0
 19 20  1  0
 20 21  2  0
 21 16  1  0
M  END

$$$$
