No_321-gen_results/8p0m/2024-11-27-11-27-31/
     RDKit          3D

  8  7  0  0  0  0  0  0  0  0999 V2000
  -28.0727   -1.2542   28.5316 F   0  0  0  0  0  0  0  0  0  0  0  0
  -27.3591   -0.3792   28.7224 C   0  0  0  0  0  0  0  0  0  0  0  0
  -26.3180   -0.6608   29.1159 F   0  0  0  0  0  0  0  0  0  0  0  0
  -27.6804    0.9274   28.3001 C   0  0  0  0  0  0  0  0  0  0  0  0
  -28.7595    1.1960   27.6572 C   0  0  0  0  0  0  0  0  0  0  0  0
  -29.0907    2.4696   27.2302 C   0  0  0  0  0  0  0  0  0  0  0  0
  -28.1829    3.5737   27.4853 C   0  0  0  0  0  0  0  0  0  0  0  0
  -26.9614    3.2581   28.1501 C   0  0  0  0  0  0  0  0  0  0  0  0
  1  2  1  0
  2  3  1  0
  2  4  1  0
  4  5  2  3
  5  6  1  0
  6  7  2  3
  7  8  1  0
M  END

$$$$
