No_3287-gen_results/8p0m/2024-11-27-11-27-31/
     RDKit          3D

 19 20  0  0  0  0  0  0  0  0999 V2000
  -28.0162   -0.8135   28.8779 C   0  0  0  0  0  0  0  0  0  0  0  0
  -27.0636   -0.1190   28.6079 C   0  0  0  0  0  0  0  0  0  0  0  0
  -26.8756    1.1325   28.9134 C   0  0  0  0  0  0  0  0  0  0  0  0
  -27.9014    1.8066   29.6436 C   0  0  0  0  0  0  0  0  0  0  0  0
  -29.0458   -0.2316   29.7181 C   0  0  0  0  0  0  0  0  0  0  0  0
  -28.9402    1.0517   30.0597 C   0  0  0  0  0  0  0  0  0  0  0  0
  -30.0593   -1.0632   30.0946 O   0  0  0  0  0  0  0  0  0  0  0  0
  -25.6684    1.9362   28.4484 C   0  0  0  0  0  0  0  0  0  0  0  0
  -24.8300    1.8451   27.8766 C   0  0  0  0  0  0  0  0  0  0  0  0
  -23.6993    2.7703   27.5516 C   0  0  0  0  0  0  0  0  0  0  0  0
  -25.9834    3.4421   28.4906 C   0  0  0  0  0  0  0  0  0  0  0  0
  -25.1269    4.4462   28.0935 C   0  0  0  0  0  0  0  0  0  0  0  0
  -23.9525    4.0551   27.5320 C   0  0  0  0  0  0  0  0  0  0  0  0
  -22.2573    2.1878   26.7265 Cl  0  0  0  0  0  0  0  0  0  0  0  0
  -31.1677   -1.1153   29.5803 C   0  0  0  0  0  0  0  0  0  0  0  0
  -31.7164   -0.3531   28.8574 C   0  0  0  0  0  0  0  0  0  0  0  0
  -32.7935   -0.7175   28.2376 O   0  0  0  0  0  0  0  0  0  0  0  0
  -31.3205   -2.5080   29.0565 O   0  0  0  0  0  0  0  0  0  0  0  0
  -31.2924    0.8375   28.5139 O   0  0  0  0  0  0  0  0  0  0  0  0
  5  7  1  0
  3  8  1  0
 10 14  1  0
  7 15  1  0
 15 16  1  0
 16 17  1  0
 15 18  1  0
 16 19  2  0
  8  9  2  0
  9 10  1  0
 10 13  2  0
 13 12  1  0
 12 11  2  0
 11  8  1  0
  1  2  2  0
  2  3  1  0
  3  4  2  0
  4  6  1  0
  6  5  2  0
  5  1  1  0
M  END

$$$$
