No_3294-gen_results/8p0m/2024-11-27-11-27-31/
     RDKit          3D

 20 21  0  0  0  0  0  0  0  0999 V2000
  -28.0162   -0.8135   28.8779 C   0  0  0  0  0  0  0  0  0  0  0  0
  -27.0636   -0.1190   28.6079 C   0  0  0  0  0  0  0  0  0  0  0  0
  -25.7923   -0.4302   29.0761 C   0  0  0  0  0  0  0  0  0  0  0  0
  -24.5456    0.3494   28.8225 C   0  0  0  0  0  0  0  0  0  0  0  0
  -24.6586    1.4196   27.8878 C   0  0  0  0  0  0  0  0  0  0  0  0
  -25.9471    1.6811   27.3792 C   0  0  0  0  0  0  0  0  0  0  0  0
  -27.0439    0.9739   27.6871 C   0  0  0  0  0  0  0  0  0  0  0  0
  -28.0241   -1.6475   30.1263 C   0  0  0  0  0  0  0  0  0  0  0  0
  -26.7278   -2.0846   30.5807 C   0  0  0  0  0  0  0  0  0  0  0  0
  -25.5915   -1.4064   30.1489 C   0  0  0  0  0  0  0  0  0  0  0  0
  -23.4486    2.1675   27.5241 C   0  0  0  0  0  0  0  0  0  0  0  0
  -21.9623    1.5138   27.7360 Cl  0  0  0  0  0  0  0  0  0  0  0  0
  -23.5846    3.3187   26.8923 O   0  0  0  0  0  0  0  0  0  0  0  0
  -29.1654   -2.4625   30.5273 C   0  0  0  0  0  0  0  0  0  0  0  0
  -30.1666   -2.0314   30.7369 O   0  0  0  0  0  0  0  0  0  0  0  0
  -28.9523   -3.7642   30.7495 O   0  0  0  0  0  0  0  0  0  0  0  0
  -28.3307    1.3508   27.0181 C   0  0  0  0  0  0  0  0  0  0  0  0
  -28.9629    2.2814   27.5657 N   0  0  0  0  0  0  0  0  0  0  0  0
  -29.7547    2.9115   27.6597 C   0  0  0  0  0  0  0  0  0  0  0  0
  -30.1316    3.9912   28.6434 C   0  0  0  0  0  0  0  0  0  0  0  0
  5 11  1  0
 11 12  1  0
 11 13  2  0
  8 14  1  0
 14 15  2  0
 14 16  1  0
  7 17  1  0
 17 18  1  0
 18 19  2  3
 19 20  1  0
  3  4  1  0
  4  5  2  0
  5  6  1  0
  6  7  2  0
  7  2  1  0
  1  2  2  0
  2  3  1  0
  3 10  2  0
 10  9  1  0
  9  8  2  0
  8  1  1  0
M  END

$$$$
