No_3541-gen_results/8p0m/2024-11-27-11-27-31/
     RDKit          3D

 31 35  0  0  0  0  0  0  0  0999 V2000
  -28.0162   -0.8135   28.8779 C   0  0  0  0  0  0  0  0  0  0  0  0
  -27.0636   -0.1190   28.6079 C   0  0  0  0  0  0  0  0  0  0  0  0
  -25.7923   -0.4302   29.0761 C   0  0  0  0  0  0  0  0  0  0  0  0
  -24.5456    0.3494   28.8225 C   0  0  0  0  0  0  0  0  0  0  0  0
  -23.2409    0.0217   29.3323 C   0  0  0  0  0  0  0  0  0  0  0  0
  -23.1926   -1.2816   29.8967 C   0  0  0  0  0  0  0  0  0  0  0  0
  -27.8703   -1.9138   29.8642 C   0  0  0  0  0  0  0  0  0  0  0  0
  -26.6310   -2.3256   30.2990 C   0  0  0  0  0  0  0  0  0  0  0  0
  -25.5115   -1.5728   29.9655 C   0  0  0  0  0  0  0  0  0  0  0  0
  -24.2124   -1.9703   30.3280 C   0  0  0  0  0  0  0  0  0  0  0  0
  -24.5933    1.5941   27.9969 C   0  0  0  0  0  0  0  0  0  0  0  0
  -24.7798    2.7091   28.6120 C   0  0  0  0  0  0  0  0  0  0  0  0
  -25.0489    3.8810   27.8701 C   0  0  0  0  0  0  0  0  0  0  0  0
  -24.4466    1.4851   26.6475 C   0  0  0  0  0  0  0  0  0  0  0  0
  -24.5590    2.6082   25.8353 C   0  0  0  0  0  0  0  0  0  0  0  0
  -24.8054    3.8632   26.4924 C   0  0  0  0  0  0  0  0  0  0  0  0
  -28.9936   -2.6610   30.1694 O   0  0  0  0  0  0  0  0  0  0  0  0
  -29.3425   -2.8008   31.5111 C   0  0  0  0  0  0  0  0  0  0  0  0
  -29.8034   -1.7514   32.1326 C   0  0  0  0  0  0  0  0  0  0  0  0
  -30.1658   -0.7216   31.5084 C   0  0  0  0  0  0  0  0  0  0  0  0
  -30.2139    0.4766   32.2849 C   0  0  0  0  0  0  0  0  0  0  0  0
  -30.2521    0.4038   33.6760 C   0  0  0  0  0  0  0  0  0  0  0  0
  -29.5480   -1.6954   33.6173 C   0  0  0  0  0  0  0  0  0  0  0  0
  -29.7782   -0.6182   34.3470 C   0  0  0  0  0  0  0  0  0  0  0  0
  -30.3003   -4.0675   31.6194 C   0  0  0  0  0  0  0  0  0  0  0  0
  -29.7216   -5.2186   32.0678 C   0  0  0  0  0  0  0  0  0  0  0  0
  -30.5089   -6.3996   32.1104 C   0  0  0  0  0  0  0  0  0  0  0  0
  -31.2874   -6.6637   31.4107 C   0  0  0  0  0  0  0  0  0  0  0  0
  -31.9447   -5.4881   30.6440 C   0  0  0  0  0  0  0  0  0  0  0  0
  -31.3718   -4.1869   30.7554 C   0  0  0  0  0  0  0  0  0  0  0  0
  -32.1384   -2.7925   29.8396 Br  0  0  0  0  0  0  0  0  0  0  0  0
  4 11  1  0
  7 17  1  0
 17 18  1  0
 18 19  1  0
 18 25  1  0
 30 31  1  0
 25 26  2  0
 26 27  1  0
 27 28  2  0
 28 29  1  0
 29 30  2  0
 30 25  1  0
  1  2  2  0
  2  3  1  0
  9  8  1  0
  8  7  2  0
  7  1  1  0
 19 20  2  0
 20 21  1  0
 21 22  2  0
 22 24  1  0
 24 23  2  0
 23 19  1  0
  3  4  2  0
  4  5  1  0
  5  6  2  0
  6 10  1  0
 10  9  2  0
  9  3  1  0
 11 12  2  0
 12 13  1  0
 13 16  2  0
 16 15  1  0
 15 14  2  0
 14 11  1  0
M  END

$$$$
