No_3651-gen_results/8p0m/2024-11-27-11-27-31/
     RDKit          3D

 13 13  0  0  0  0  0  0  0  0999 V2000
  -28.0162   -0.8135   28.8779 C   0  0  0  0  0  0  0  0  0  0  0  0
  -28.4690   -0.7850   29.8287 C   0  0  0  0  0  0  0  0  0  0  0  0
  -27.1356    0.2359   28.5352 C   0  0  0  0  0  0  0  0  0  0  0  0
  -26.3351    0.2900   27.2835 C   0  0  0  0  0  0  0  0  0  0  0  0
  -28.3692    0.1957   30.9236 C   0  0  0  0  0  0  0  0  0  0  0  0
  -27.5158    1.2655   30.6540 C   0  0  0  0  0  0  0  0  0  0  0  0
  -26.8411    1.2942   29.4761 C   0  0  0  0  0  0  0  0  0  0  0  0
  -25.3575    0.4805   26.9830 N   0  0  0  0  0  0  0  0  0  0  0  0
  -27.2310    0.1304   26.1476 O   0  0  0  0  0  0  0  0  0  0  0  0
  -24.2966    0.6572   28.0542 C   0  0  0  0  0  0  0  0  0  0  0  0
  -23.3288    1.6996   27.8391 C   0  0  0  0  0  0  0  0  0  0  0  0
  -23.1834    2.1453   26.4938 C   0  0  0  0  0  0  0  0  0  0  0  0
  -24.1776    1.8812   25.5430 C   0  0  0  0  0  0  0  0  0  0  0  0
  3  4  1  0
  4  8  2  3
  4  9  1  0
  8 10  1  0
 10 11  2  3
 11 12  1  0
 12 13  2  0
  1  2  2  0
  2  5  1  0
  5  6  2  0
  6  7  1  0
  7  3  2  0
  3  1  1  0
M  END

$$$$
