No_3574-gen_results/8p0m/2024-11-27-11-27-31/
     RDKit          3D

 21 24  0  0  0  0  0  0  0  0999 V2000
  -28.0162   -0.8135   28.8779 C   0  0  0  0  0  0  0  0  0  0  0  0
  -27.0636   -0.1189   28.6079 C   0  0  0  0  0  0  0  0  0  0  0  0
  -25.7647   -0.3897   29.0360 C   0  0  0  0  0  0  0  0  0  0  0  0
  -25.5296   -1.5302   29.9014 C   0  0  0  0  0  0  0  0  0  0  0  0
  -26.6577   -2.2915   30.2035 C   0  0  0  0  0  0  0  0  0  0  0  0
  -27.8548   -1.9555   29.7630 C   0  0  0  0  0  0  0  0  0  0  0  0
  -24.4274    0.2189   28.7748 C   0  0  0  0  0  0  0  0  0  0  0  0
  -23.2556   -0.1087   29.1633 C   0  0  0  0  0  0  0  0  0  0  0  0
  -22.0642    0.5997   28.8225 C   0  0  0  0  0  0  0  0  0  0  0  0
  -22.0229    1.5757   27.8809 C   0  0  0  0  0  0  0  0  0  0  0  0
  -24.3583    1.3838   27.8033 C   0  0  0  0  0  0  0  0  0  0  0  0
  -23.2203    2.0164   27.4454 C   0  0  0  0  0  0  0  0  0  0  0  0
  -29.0209   -2.7797   30.1950 C   0  0  0  0  0  0  0  0  0  0  0  0
  -30.1590   -2.3319   30.1889 N   0  0  0  0  0  0  0  0  0  0  0  0
  -28.8040   -3.9667   30.6289 O   0  0  0  0  0  0  0  0  0  0  0  0
  -31.3378   -2.9320   30.5869 C   0  0  0  0  0  0  0  0  0  0  0  0
  -32.3220   -2.4863   30.8171 C   0  0  0  0  0  0  0  0  0  0  0  0
  -32.3664   -1.0787   31.0129 C   0  0  0  0  0  0  0  0  0  0  0  0
  -31.3104   -0.2677   30.5912 C   0  0  0  0  0  0  0  0  0  0  0  0
  -30.3788   -0.8553   30.0635 C   0  0  0  0  0  0  0  0  0  0  0  0
  -29.1260   -0.1368   29.6017 C   0  0  0  0  0  0  0  0  0  0  0  0
  3  7  1  0
  6 13  1  0
 13 14  1  0
 13 15  2  0
 14 16  1  0
 17 18  1  0
 14 20  1  0
 19 20  1  0
  1 21  1  0
 20 21  1  0
 16 17  1  0
 18 19  1  0
  7  8  2  0
  8  9  1  0
  9 10  2  0
 10 12  1  0
 12 11  2  0
 11  7  1  0
  1  2  2  0
  2  3  1  0
  3  4  2  0
  4  5  1  0
  5  6  2  0
  6  1  1  0
M  END

$$$$
