No_317-gen_results/8p0m/2024-11-27-11-27-31/
     RDKit          3D

 16 17  0  0  0  0  0  0  0  0999 V2000
  -28.0162   -0.8135   28.8779 C   0  0  0  0  0  0  0  0  0  0  0  0
  -28.4690   -0.7850   29.8287 C   0  0  0  0  0  0  0  0  0  0  0  0
  -28.1816    0.4277   28.1134 C   0  0  0  0  0  0  0  0  0  0  0  0
  -28.9841    1.4155   28.5154 C   0  0  0  0  0  0  0  0  0  0  0  0
  -29.3802    0.1384   30.4612 C   0  0  0  0  0  0  0  0  0  0  0  0
  -29.5415    1.2736   29.7242 C   0  0  0  0  0  0  0  0  0  0  0  0
  -27.4452    0.4872   26.7726 C   0  0  0  0  0  0  0  0  0  0  0  0
  -26.4447    1.5070   26.6299 C   0  0  0  0  0  0  0  0  0  0  0  0
  -25.2364    1.4302   27.4341 C   0  0  0  0  0  0  0  0  0  0  0  0
  -24.7573    0.5551   28.0332 C   0  0  0  0  0  0  0  0  0  0  0  0
  -23.7482    0.5003   28.7880 C   0  0  0  0  0  0  0  0  0  0  0  0
  -23.2465   -0.6154   29.6673 C   0  0  0  0  0  0  0  0  0  0  0  0
  -24.3578    2.6717   27.3552 C   0  0  0  0  0  0  0  0  0  0  0  0
  -23.2172    2.6969   28.0025 N   0  0  0  0  0  0  0  0  0  0  0  0
  -22.8194    1.6588   28.7725 C   0  0  0  0  0  0  0  0  0  0  0  0
  -24.1442   -0.9965   30.6463 C   0  0  0  0  0  0  0  0  0  0  0  0
  3  7  1  0
  7  8  1  0
  8  9  1  0
 11 12  1  0
 12 16  1  0
  9 10  2  0
 10 11  1  0
 11 15  2  0
 15 14  1  0
 14 13  2  0
 13  9  1  0
  1  2  2  0
  2  5  1  0
  5  6  2  0
  6  4  1  0
  4  3  2  0
  3  1  1  0
M  END

$$$$
