No_3770-gen_results/8p0m/2024-11-27-11-27-31/
     RDKit          3D

 35 37  0  0  0  0  0  0  0  0999 V2000
  -28.0162   -0.8135   28.8779 C   0  0  0  0  0  0  0  0  0  0  0  0
  -27.0636   -0.1189   28.6079 C   0  0  0  0  0  0  0  0  0  0  0  0
  -25.7647   -0.3897   29.0360 C   0  0  0  0  0  0  0  0  0  0  0  0
  -25.5296   -1.5302   29.9014 C   0  0  0  0  0  0  0  0  0  0  0  0
  -26.6888   -2.2893   30.1810 C   0  0  0  0  0  0  0  0  0  0  0  0
  -27.8727   -1.9508   29.7373 C   0  0  0  0  0  0  0  0  0  0  0  0
  -24.6993    0.3604   28.7753 F   0  0  0  0  0  0  0  0  0  0  0  0
  -28.9654   -2.7324   30.0906 O   0  0  0  0  0  0  0  0  0  0  0  0
  -29.3194   -2.8610   31.4293 C   0  0  0  0  0  0  0  0  0  0  0  0
  -29.7243   -4.1736   31.7112 C   0  0  0  0  0  0  0  0  0  0  0  0
  -30.9397   -4.4038   31.5595 O   0  0  0  0  0  0  0  0  0  0  0  0
  -31.4170   -5.4999   31.1024 C   0  0  0  0  0  0  0  0  0  0  0  0
  -28.9524   -5.1417   32.0205 O   0  0  0  0  0  0  0  0  0  0  0  0
  -31.2489   -5.6568   29.7080 C   0  0  0  0  0  0  0  0  0  0  0  0
  -31.1942   -6.8890   29.2831 F   0  0  0  0  0  0  0  0  0  0  0  0
  -32.3101   -5.0376   29.0394 F   0  0  0  0  0  0  0  0  0  0  0  0
  -32.7962   -5.5511   31.2437 F   0  0  0  0  0  0  0  0  0  0  0  0
  -30.9560   -6.6624   31.6615 F   0  0  0  0  0  0  0  0  0  0  0  0
  -30.1146   -5.1183   29.1276 F   0  0  0  0  0  0  0  0  0  0  0  0
  -27.1451    1.0928   27.6734 C   0  0  0  0  0  0  0  0  0  0  0  0
  -26.6304    1.0455   26.4364 C   0  0  0  0  0  0  0  0  0  0  0  0
  -25.8406    0.0559   26.0582 C   0  0  0  0  0  0  0  0  0  0  0  0
  -25.3379   -0.0068   24.6709 C   0  0  0  0  0  0  0  0  0  0  0  0
  -28.0989    2.0685   28.1652 C   0  0  0  0  0  0  0  0  0  0  0  0
  -28.3177    3.1089   27.3742 C   0  0  0  0  0  0  0  0  0  0  0  0
  -27.6820    3.2018   26.0724 C   0  0  0  0  0  0  0  0  0  0  0  0
  -26.8114    2.1944   25.6272 C   0  0  0  0  0  0  0  0  0  0  0  0
  -24.3188   -1.8378   30.3054 O   0  0  0  0  0  0  0  0  0  0  0  0
  -23.4375   -2.3003   29.4944 C   0  0  0  0  0  0  0  0  0  0  0  0
  -29.1761    4.2528   27.8000 C   0  0  0  0  0  0  0  0  0  0  0  0
  -29.7909    4.9895   26.9551 C   0  0  0  0  0  0  0  0  0  0  0  0
  -30.6304    6.0486   27.3326 C   0  0  0  0  0  0  0  0  0  0  0  0
  -30.8592    6.2791   28.6528 C   0  0  0  0  0  0  0  0  0  0  0  0
  -30.2315    5.4985   29.5604 C   0  0  0  0  0  0  0  0  0  0  0  0
  -29.3857    4.4974   29.1989 C   0  0  0  0  0  0  0  0  0  0  0  0
  3  7  1  0
  6  8  1  0
  8  9  1  0
  9 10  1  0
 10 11  1  0
 11 12  1  0
 10 13  2  0
 12 14  1  0
 14 15  1  0
 14 16  1  0
 12 17  1  0
 12 18  1  0
 14 19  1  0
  2 20  1  0
 21 22  1  0
 22 23  2  0
  4 28  1  0
 28 29  1  0
 25 30  1  0
  1  2  2  0
  2  3  1  0
  3  4  2  0
  4  5  1  0
  5  6  2  0
  6  1  1  0
 30 31  2  0
 31 32  1  0
 32 33  2  0
 33 34  1  0
 34 35  2  0
 35 30  1  0
 20 21  2  0
 21 27  1  0
 27 26  2  0
 26 25  1  0
 25 24  2  0
 24 20  1  0
M  END

$$$$
