No_384-gen_results/8p0m/2024-11-27-11-27-31/
     RDKit          3D

 11 11  0  0  0  0  0  0  0  0999 V2000
  -28.0727   -1.2542   28.5316 F   0  0  0  0  0  0  0  0  0  0  0  0
  -27.3591   -0.3792   28.7224 C   0  0  0  0  0  0  0  0  0  0  0  0
  -26.3180   -0.6608   29.1159 F   0  0  0  0  0  0  0  0  0  0  0  0
  -27.2545    0.4794   27.4896 C   0  0  0  0  0  0  0  0  0  0  0  0
  -27.9307    0.4754   29.6895 F   0  0  0  0  0  0  0  0  0  0  0  0
  -25.9910    0.8564   27.1684 C   0  0  0  0  0  0  0  0  0  0  0  0
  -25.6253    1.6144   26.0213 C   0  0  0  0  0  0  0  0  0  0  0  0
  -24.2285    1.9862   25.8074 C   0  0  0  0  0  0  0  0  0  0  0  0
  -23.2282    1.5927   26.7771 C   0  0  0  0  0  0  0  0  0  0  0  0
  -23.6199    0.8422   27.9144 C   0  0  0  0  0  0  0  0  0  0  0  0
  -24.9170    0.4961   28.0626 C   0  0  0  0  0  0  0  0  0  0  0  0
  1  2  1  0
  2  3  1  0
  2  4  1  0
  2  5  1  0
  4  6  1  0
  6  7  2  0
  7  8  1  0
  8  9  2  0
  9 10  1  0
 10 11  2  0
 11  6  1  0
M  END

$$$$
