No_3516-gen_results/8p0m/2024-11-27-11-27-31/
     RDKit          3D

 35 40  0  0  0  0  0  0  0  0999 V2000
  -28.0162   -0.8135   28.8779 C   0  0  0  0  0  0  0  0  0  0  0  0
  -27.0636   -0.1190   28.6079 C   0  0  0  0  0  0  0  0  0  0  0  0
  -26.9287    1.1713   29.0083 C   0  0  0  0  0  0  0  0  0  0  0  0
  -25.7702    2.0341   28.6884 C   0  0  0  0  0  0  0  0  0  0  0  0
  -24.7141    1.4431   27.9188 C   0  0  0  0  0  0  0  0  0  0  0  0
  -24.8590    0.0783   27.5836 C   0  0  0  0  0  0  0  0  0  0  0  0
  -25.9647   -0.6606   27.9164 C   0  0  0  0  0  0  0  0  0  0  0  0
  -28.6576   -0.6023   30.2546 C   0  0  0  0  0  0  0  0  0  0  0  0
  -29.6857   -1.2047   30.5672 N   0  0  0  0  0  0  0  0  0  0  0  0
  -23.5303    2.1680   27.5457 C   0  0  0  0  0  0  0  0  0  0  0  0
  -22.5154    1.7052   27.1738 O   0  0  0  0  0  0  0  0  0  0  0  0
  -23.7267    3.5026   27.4655 O   0  0  0  0  0  0  0  0  0  0  0  0
  -30.4646   -1.7139   29.8024 C   0  0  0  0  0  0  0  0  0  0  0  0
  -30.9703   -2.8216   30.0682 O   0  0  0  0  0  0  0  0  0  0  0  0
  -31.0176   -1.1919   28.7800 O   0  0  0  0  0  0  0  0  0  0  0  0
  -29.9803   -1.3944   32.1028 C   0  0  0  0  0  0  0  0  0  0  0  0
  -29.9813   -0.1215   32.7556 C   0  0  0  0  0  0  0  0  0  0  0  0
  -28.6417    0.3074   32.8162 C   0  0  0  0  0  0  0  0  0  0  0  0
  -28.0331    0.3611   31.3119 C   0  0  0  0  0  0  0  0  0  0  0  0
  -30.4551   -0.2558   34.2254 C   0  0  0  0  0  0  0  0  0  0  0  0
  -31.5600    0.2414   34.3978 C   0  0  0  0  0  0  0  0  0  0  0  0
  -31.9323    0.7788   35.5952 C   0  0  0  0  0  0  0  0  0  0  0  0
  -31.2606    0.3129   36.7557 C   0  0  0  0  0  0  0  0  0  0  0  0
  -30.0337   -0.3145   36.5971 C   0  0  0  0  0  0  0  0  0  0  0  0
  -29.5410   -0.5234   35.2994 C   0  0  0  0  0  0  0  0  0  0  0  0
  -30.8045    0.9229   32.0340 C   0  0  0  0  0  0  0  0  0  0  0  0
  -30.2616    2.1850   32.0178 C   0  0  0  0  0  0  0  0  0  0  0  0
  -30.9873    3.2322   31.6266 C   0  0  0  0  0  0  0  0  0  0  0  0
  -30.4423    4.5357   31.5312 C   0  0  0  0  0  0  0  0  0  0  0  0
  -29.0944    4.7466   31.7921 C   0  0  0  0  0  0  0  0  0  0  0  0
  -28.3101    3.6774   32.2063 C   0  0  0  0  0  0  0  0  0  0  0  0
  -28.9115    2.4880   32.2967 C   0  0  0  0  0  0  0  0  0  0  0  0
  -28.4009    1.7368   33.2339 C   0  0  0  0  0  0  0  0  0  0  0  0
  -27.5843   -0.7266   33.4667 C   0  0  0  0  0  0  0  0  0  0  0  0
  -28.1323   -0.9161   35.0200 C   0  0  0  0  0  0  0  0  0  0  0  0
  1  2  1  0
  1  8  1  0
  8  9  1  0
  5 10  1  0
 10 11  2  0
 10 12  1  0
  9 13  1  0
 13 14  2  0
 13 15  1  0
  9 16  1  0
 16 17  1  0
 17 18  1  0
  8 19  1  0
 18 19  1  0
 17 20  1  0
 17 26  1  0
 26 27  1  0
 18 33  1  0
 32 33  1  0
 18 34  1  0
 25 35  1  0
 34 35  1  0
  2  3  2  0
  3  4  1  0
  4  5  2  0
  5  6  1  0
  6  7  2  0
  7  2  1  0
 27 28  2  0
 28 29  1  0
 29 30  2  0
 30 31  1  0
 31 32  2  0
 32 27  1  0
 20 21  2  0
 21 22  1  0
 22 23  2  0
 23 24  1  0
 24 25  2  0
 25 20  1  0
M  END

$$$$
