No_3282-gen_results/8p0m/2024-11-27-11-27-31/
     RDKit          3D

 17 19  0  0  0  0  0  0  0  0999 V2000
  -28.0162   -0.8135   28.8779 C   0  0  0  0  0  0  0  0  0  0  0  0
  -28.4690   -0.7850   29.8287 C   0  0  0  0  0  0  0  0  0  0  0  0
  -27.0871    0.2903   28.6377 C   0  0  0  0  0  0  0  0  0  0  0  0
  -26.2516    0.4114   27.4223 C   0  0  0  0  0  0  0  0  0  0  0  0
  -28.3913    0.1041   30.9805 C   0  0  0  0  0  0  0  0  0  0  0  0
  -29.1040    0.0109   32.2070 C   0  0  0  0  0  0  0  0  0  0  0  0
  -25.2849    1.4369   27.3546 C   0  0  0  0  0  0  0  0  0  0  0  0
  -25.0680    2.2438   28.4813 C   0  0  0  0  0  0  0  0  0  0  0  0
  -25.7911    2.1059   29.5975 C   0  0  0  0  0  0  0  0  0  0  0  0
  -26.6810    1.1267   29.7193 C   0  0  0  0  0  0  0  0  0  0  0  0
  -27.3741    1.0341   30.8446 C   0  0  0  0  0  0  0  0  0  0  0  0
  -24.4742    1.5972   26.1300 C   0  0  0  0  0  0  0  0  0  0  0  0
  -23.3551    2.4760   26.1726 C   0  0  0  0  0  0  0  0  0  0  0  0
  -23.1458    3.2465   27.3425 C   0  0  0  0  0  0  0  0  0  0  0  0
  -23.8866    3.1803   28.3380 C   0  0  0  0  0  0  0  0  0  0  0  0
  -28.8057   -0.7825   33.0130 O   0  0  0  0  0  0  0  0  0  0  0  0
  -30.1811    0.7034   32.2792 O   0  0  0  0  0  0  0  0  0  0  0  0
  5  6  1  0
  6 16  1  0
  6 17  2  0
  3  4  2  0
  4  7  1  0
  8  9  1  0
  9 10  2  0
  7  8  2  0
  8 15  1  0
 15 14  2  0
 14 13  1  0
 13 12  2  0
 12  7  1  0
  1  2  2  0
  2  5  1  0
  5 11  2  0
 11 10  1  0
 10  3  1  0
  3  1  1  0
M  END

$$$$
