No_3845-gen_results/8p0m/2024-11-27-11-27-31/
     RDKit          3D

 10  9  0  0  0  0  0  0  0  0999 V2000
  -28.0162   -0.8135   28.8779 C   0  0  0  0  0  0  0  0  0  0  0  0
  -27.0636   -0.1189   28.6079 C   0  0  0  0  0  0  0  0  0  0  0  0
  -26.9849    0.5972   27.5218 N   0  0  0  0  0  0  0  0  0  0  0  0
  -28.6850   -0.3903   30.0601 C   0  0  0  0  0  0  0  0  0  0  0  0
  -30.0052   -0.6713   30.2249 C   0  0  0  0  0  0  0  0  0  0  0  0
  -25.8350    1.0536   26.9322 C   0  0  0  0  0  0  0  0  0  0  0  0
  -24.6408    0.7537   27.5052 C   0  0  0  0  0  0  0  0  0  0  0  0
  -23.4012    1.3058   27.0476 C   0  0  0  0  0  0  0  0  0  0  0  0
  -22.2474    1.1903   27.8407 C   0  0  0  0  0  0  0  0  0  0  0  0
  -22.2447    0.3473   28.9302 C   0  0  0  0  0  0  0  0  0  0  0  0
  1  2  1  0
  2  3  1  0
  1  4  1  0
  4  5  1  0
  3  6  1  0
  6  7  2  3
  7  8  1  0
  8  9  2  3
  9 10  1  0
M  END

$$$$
