No_374-gen_results/8p0m/2024-11-27-11-27-31/
     RDKit          3D

 25 26  0  0  0  0  0  0  0  0999 V2000
  -28.0162   -0.8135   28.8779 C   0  0  0  0  0  0  0  0  0  0  0  0
  -28.4690   -0.7850   29.8287 C   0  0  0  0  0  0  0  0  0  0  0  0
  -27.2676    0.4775   28.4720 Cl  0  0  0  0  0  0  0  0  0  0  0  0
  -29.0143   -1.9531   30.4013 C   0  0  0  0  0  0  0  0  0  0  0  0
  -30.3056   -2.0858   30.8246 C   0  0  0  0  0  0  0  0  0  0  0  0
  -30.9126   -0.9044   31.3259 C   0  0  0  0  0  0  0  0  0  0  0  0
  -30.3705    0.2927   31.0236 C   0  0  0  0  0  0  0  0  0  0  0  0
  -29.2227    0.3482   30.2560 C   0  0  0  0  0  0  0  0  0  0  0  0
  -30.7569   -3.4437   31.2958 C   0  0  0  0  0  0  0  0  0  0  0  0
  -30.2303   -4.4164   31.0806 O   0  0  0  0  0  0  0  0  0  0  0  0
  -31.9789   -3.4974   31.7848 O   0  0  0  0  0  0  0  0  0  0  0  0
  -31.0942    1.5405   31.4096 C   0  0  0  0  0  0  0  0  0  0  0  0
  -31.8798    1.4588   32.2841 F   0  0  0  0  0  0  0  0  0  0  0  0
  -30.1130    2.4238   31.8112 F   0  0  0  0  0  0  0  0  0  0  0  0
  -31.5615    2.0558   30.2404 F   0  0  0  0  0  0  0  0  0  0  0  0
  -26.5161   -1.9294   28.9523 Cl  0  0  0  0  0  0  0  0  0  0  0  0
  -32.6552   -4.6202   31.9597 C   0  0  0  0  0  0  0  0  0  0  0  0
  -34.0311   -4.6204   31.6248 C   0  0  0  0  0  0  0  0  0  0  0  0
  -34.6697   -3.5964   31.5813 O   0  0  0  0  0  0  0  0  0  0  0  0
  -34.4897   -5.6413   30.7889 N   0  0  0  0  0  0  0  0  0  0  0  0
  -35.7644   -5.6730   30.1739 C   0  0  0  0  0  0  0  0  0  0  0  0
  -35.9585   -6.5524   29.3948 C   0  0  0  0  0  0  0  0  0  0  0  0
  -35.3685   -7.0570   28.7052 C   0  0  0  0  0  0  0  0  0  0  0  0
  -33.8009   -7.0527   29.0708 C   0  0  0  0  0  0  0  0  0  0  0  0
  -33.4398   -6.1776   30.0694 C   0  0  0  0  0  0  0  0  0  0  0  0
  1  2  1  0
  1  3  1  0
  5  9  1  0
  9 10  2  0
  9 11  1  0
  7 12  1  0
 12 13  1  0
 12 14  1  0
 12 15  1  0
  1 16  1  0
 11 17  1  0
 17 18  1  0
 18 19  2  0
 18 20  1  0
 20 21  1  0
 22 23  1  0
 20 25  1  0
 24 25  1  0
 21 22  1  0
 23 24  1  0
  2  4  2  0
  4  5  1  0
  5  6  2  0
  6  7  1  0
  7  8  2  0
  8  2  1  0
M  END

$$$$
