No_3891-gen_results/8p0m/2024-11-27-11-27-31/
     RDKit          3D

 18 19  0  0  0  0  0  0  0  0999 V2000
  -28.1229   -1.3353   28.4874 O   0  0  0  0  0  0  0  0  0  0  0  0
  -27.4806   -0.4044   28.7094 C   0  0  0  0  0  0  0  0  0  0  0  0
  -26.3804   -0.0867   27.9394 C   0  0  0  0  0  0  0  0  0  0  0  0
  -27.6664    0.4468   29.8988 N   0  0  0  0  0  0  0  0  0  0  0  0
  -25.1773   -0.4388   28.3946 C   0  0  0  0  0  0  0  0  0  0  0  0
  -26.5259    0.6036   26.6867 C   0  0  0  0  0  0  0  0  0  0  0  0
  -24.8099   -1.1180   29.5646 C   0  0  0  0  0  0  0  0  0  0  0  0
  -26.9560    1.5703   30.2630 C   0  0  0  0  0  0  0  0  0  0  0  0
  -26.4594    2.3447   29.6198 C   0  0  0  0  0  0  0  0  0  0  0  0
  -25.6752    3.4821   30.1817 C   0  0  0  0  0  0  0  0  0  0  0  0
  -25.4695    3.4991   31.5625 C   0  0  0  0  0  0  0  0  0  0  0  0
  -25.9998    2.4906   32.3993 C   0  0  0  0  0  0  0  0  0  0  0  0
  -26.7625    1.4353   31.7768 C   0  0  0  0  0  0  0  0  0  0  0  0
  -23.5059   -1.4123   29.9233 C   0  0  0  0  0  0  0  0  0  0  0  0
  -22.4866   -0.8905   29.1223 C   0  0  0  0  0  0  0  0  0  0  0  0
  -22.6898   -0.0713   28.0350 C   0  0  0  0  0  0  0  0  0  0  0  0
  -23.9945    0.1442   27.6708 C   0  0  0  0  0  0  0  0  0  0  0  0
  -26.0463    0.3111   25.5833 C   0  0  0  0  0  0  0  0  0  0  0  0
  1  2  2  0
  2  3  1  0
  2  4  1  0
  3  5  1  0
  3  6  1  0
  4  8  1  0
  6 18  2  0
  8  9  2  0
  9 10  1  0
 10 11  2  0
 11 12  1  0
 12 13  2  0
 13  8  1  0
  5  7  2  0
  7 14  1  0
 14 15  2  0
 15 16  1  0
 16 17  2  0
 17  5  1  0
M  END

$$$$
