No_3852-gen_results/8p0m/2024-11-27-11-27-31/
     RDKit          3D

 21 23  0  0  0  0  0  0  0  0999 V2000
  -28.0162   -0.8135   28.8779 C   0  0  0  0  0  0  0  0  0  0  0  0
  -28.4690   -0.7850   29.8287 C   0  0  0  0  0  0  0  0  0  0  0  0
  -26.5455   -0.8762   28.8500 C   0  0  0  0  0  0  0  0  0  0  0  0
  -25.8041   -1.0324   30.0571 C   0  0  0  0  0  0  0  0  0  0  0  0
  -24.3697   -1.0998   30.0718 C   0  0  0  0  0  0  0  0  0  0  0  0
  -27.9902   -1.0051   31.2092 C   0  0  0  0  0  0  0  0  0  0  0  0
  -26.5616   -1.1368   31.2600 C   0  0  0  0  0  0  0  0  0  0  0  0
  -23.7274    0.1713   30.0259 C   0  0  0  0  0  0  0  0  0  0  0  0
  -24.0505    1.2537   30.5567 C   0  0  0  0  0  0  0  0  0  0  0  0
  -23.4331    2.5222   30.2587 C   0  0  0  0  0  0  0  0  0  0  0  0
  -22.5860    2.3737   29.2353 N   0  0  0  0  0  0  0  0  0  0  0  0
  -22.6254    0.5342   29.0427 C   0  0  0  0  0  0  0  0  0  0  0  0
  -25.5818   -0.7299   27.4368 Cl  0  0  0  0  0  0  0  0  0  0  0  0
  -30.0754   -0.7166   29.8649 C   0  0  0  0  0  0  0  0  0  0  0  0
  -30.7850   -1.4783   30.3132 O   0  0  0  0  0  0  0  0  0  0  0  0
  -30.5244    0.3992   29.2313 N   0  0  0  0  0  0  0  0  0  0  0  0
  -31.9450    0.6227   29.0751 C   0  0  0  0  0  0  0  0  0  0  0  0
  -32.2866    1.5775   28.5472 C   0  0  0  0  0  0  0  0  0  0  0  0
  -31.3679    2.5495   27.9423 C   0  0  0  0  0  0  0  0  0  0  0  0
  -29.9890    2.3350   28.0349 C   0  0  0  0  0  0  0  0  0  0  0  0
  -29.5937    1.3180   28.6828 C   0  0  0  0  0  0  0  0  0  0  0  0
  4  5  1  0
  5  8  1  0
  8  9  2  0
  9 10  1  0
 10 11  2  0
  8 12  1  0
 11 12  1  0
  3 13  1  0
  2 14  1  0
 14 15  2  0
 14 16  1  0
 16 17  1  0
 18 19  1  0
 16 21  1  0
 20 21  1  0
 17 18  1  0
 19 20  1  0
  1  2  2  0
  2  6  1  0
  6  7  2  0
  7  4  1  0
  4  3  2  0
  3  1  1  0
M  END

$$$$
