No_3398-gen_results/8p0m/2024-11-27-11-27-31/
     RDKit          3D

 32 34  0  0  0  0  0  0  0  0999 V2000
  -28.0162   -0.8135   28.8779 C   0  0  0  0  0  0  0  0  0  0  0  0
  -28.4690   -0.7850   29.8287 C   0  0  0  0  0  0  0  0  0  0  0  0
  -26.5455   -0.8762   28.8500 C   0  0  0  0  0  0  0  0  0  0  0  0
  -25.6825   -0.7773   27.6829 C   0  0  0  0  0  0  0  0  0  0  0  0
  -27.9181   -1.0034   31.1877 C   0  0  0  0  0  0  0  0  0  0  0  0
  -26.5308   -1.0794   31.2463 C   0  0  0  0  0  0  0  0  0  0  0  0
  -25.7798   -1.0462   30.0905 C   0  0  0  0  0  0  0  0  0  0  0  0
  -25.8976    0.2387   26.7449 C   0  0  0  0  0  0  0  0  0  0  0  0
  -25.0024    0.4172   25.6959 C   0  0  0  0  0  0  0  0  0  0  0  0
  -27.0304    1.0599   26.8181 C   0  0  0  0  0  0  0  0  0  0  0  0
  -27.3110    1.9122   25.7252 C   0  0  0  0  0  0  0  0  0  0  0  0
  -28.3751    2.7353   25.8868 C   0  0  0  0  0  0  0  0  0  0  0  0
  -29.2057    2.7006   26.9313 C   0  0  0  0  0  0  0  0  0  0  0  0
  -28.9438    1.8553   27.9581 C   0  0  0  0  0  0  0  0  0  0  0  0
  -27.8678    1.0819   27.9624 C   0  0  0  0  0  0  0  0  0  0  0  0
  -27.0912    1.6490   29.0215 O   0  0  0  0  0  0  0  0  0  0  0  0
  -26.4329    2.7737   28.8683 C   0  0  0  0  0  0  0  0  0  0  0  0
  -26.8249    3.9406   29.3316 C   0  0  0  0  0  0  0  0  0  0  0  0
  -26.1732    5.0893   29.1194 C   0  0  0  0  0  0  0  0  0  0  0  0
  -25.0500    2.7907   28.4285 C   0  0  0  0  0  0  0  0  0  0  0  0
  -24.3166    3.9065   28.1617 C   0  0  0  0  0  0  0  0  0  0  0  0
  -26.6916    6.4316   29.5277 C   0  0  0  0  0  0  0  0  0  0  0  0
  -24.8741    5.0977   28.4941 C   0  0  0  0  0  0  0  0  0  0  0  0
  -27.3643    6.5276   30.4311 O   0  0  0  0  0  0  0  0  0  0  0  0
  -26.3546    7.4261   28.7336 O   0  0  0  0  0  0  0  0  0  0  0  0
  -24.3710   -1.0925   30.1351 C   0  0  0  0  0  0  0  0  0  0  0  0
  -23.5774    0.0128   30.3142 C   0  0  0  0  0  0  0  0  0  0  0  0
  -23.9579    1.2859   30.7102 C   0  0  0  0  0  0  0  0  0  0  0  0
  -25.0534    1.4643   31.5390 C   0  0  0  0  0  0  0  0  0  0  0  0
  -25.2339    2.7857   32.1997 C   0  0  0  0  0  0  0  0  0  0  0  0
  -24.2507    3.7721   31.9471 C   0  0  0  0  0  0  0  0  0  0  0  0
  -24.4916    4.9916   32.5704 N   0  0  0  0  0  0  0  0  0  0  0  0
  3  4  1  0
  4  8  2  3
  8  9  1  0
  8 10  1  0
 15 16  1  0
 16 17  1  0
 19 22  1  0
 22 24  2  0
 22 25  1  0
  7 26  1  0
 26 27  2  3
 27 28  1  0
 28 29  1  0
 29 30  2  3
 30 31  1  0
 31 32  2  0
 17 18  2  0
 18 19  1  0
 19 23  2  0
 23 21  1  0
 21 20  2  0
 20 17  1  0
  1  2  2  0
  2  5  1  0
  5  6  2  0
  6  7  1  0
  7  3  2  0
  3  1  1  0
 10 11  2  0
 11 12  1  0
 12 13  2  0
 13 14  1  0
 14 15  2  0
 15 10  1  0
M  END

$$$$
