No_3757-gen_results/8p0m/2024-11-27-11-27-31/
     RDKit          3D

 16 17  0  0  0  0  0  0  0  0999 V2000
  -28.0727   -1.2542   28.5316 F   0  0  0  0  0  0  0  0  0  0  0  0
  -28.2662   -0.4214   29.1931 C   0  0  0  0  0  0  0  0  0  0  0  0
  -27.2356   -0.0574   30.0145 C   0  0  0  0  0  0  0  0  0  0  0  0
  -27.2606    1.1013   30.9347 C   0  0  0  0  0  0  0  0  0  0  0  0
  -29.4969    0.3179   29.2904 C   0  0  0  0  0  0  0  0  0  0  0  0
  -29.5573    1.4396   30.2037 C   0  0  0  0  0  0  0  0  0  0  0  0
  -28.4535    1.8015   31.0013 C   0  0  0  0  0  0  0  0  0  0  0  0
  -25.9447   -0.7424   30.0259 C   0  0  0  0  0  0  0  0  0  0  0  0
  -25.0381   -0.4319   29.0064 C   0  0  0  0  0  0  0  0  0  0  0  0
  -24.0081    0.4951   29.2845 C   0  0  0  0  0  0  0  0  0  0  0  0
  -23.1431    0.1557   30.1289 C   0  0  0  0  0  0  0  0  0  0  0  0
  -23.9016    1.6291   28.3707 C   0  0  0  0  0  0  0  0  0  0  0  0
  -22.7680    1.9306   27.8991 N   0  0  0  0  0  0  0  0  0  0  0  0
  -23.2225   -0.9299   30.9612 C   0  0  0  0  0  0  0  0  0  0  0  0
  -25.6953   -1.7873   30.9780 C   0  0  0  0  0  0  0  0  0  0  0  0
  -24.3677   -1.4897   31.6365 C   0  0  0  0  0  0  0  0  0  0  0  0
  1  2  1  0
  3  8  1  0
  8  9  1  0
  9 10  1  0
 10 11  1  0
 10 12  1  0
 12 13  2  0
 11 14  1  0
  8 15  1  0
 14 16  1  0
 15 16  1  0
  2  3  2  0
  3  4  1  0
  4  7  2  0
  7  6  1  0
  6  5  2  0
  5  2  1  0
M  END

$$$$
