No_3365-gen_results/8p0m/2024-11-27-11-27-31/
     RDKit          3D

 35 36  0  0  0  0  0  0  0  0999 V2000
  -28.0162   -0.8135   28.8779 C   0  0  0  0  0  0  0  0  0  0  0  0
  -28.4690   -0.7850   29.8287 C   0  0  0  0  0  0  0  0  0  0  0  0
  -28.1960    0.3478   28.0550 C   0  0  0  0  0  0  0  0  0  0  0  0
  -27.4421    0.5100   26.7946 C   0  0  0  0  0  0  0  0  0  0  0  0
  -27.8427    1.3330   25.8056 C   0  0  0  0  0  0  0  0  0  0  0  0
  -28.2558   -1.9271   30.8901 C   0  0  0  0  0  0  0  0  0  0  0  0
  -27.4492   -2.9641   30.4317 C   0  0  0  0  0  0  0  0  0  0  0  0
  -26.6412   -2.8044   29.3509 C   0  0  0  0  0  0  0  0  0  0  0  0
  -26.7826   -1.6363   28.6124 C   0  0  0  0  0  0  0  0  0  0  0  0
  -29.1386    1.1607   28.1452 O   0  0  0  0  0  0  0  0  0  0  0  0
  -25.5633   -3.7243   28.9910 C   0  0  0  0  0  0  0  0  0  0  0  0
  -25.5857   -5.0721   29.3885 C   0  0  0  0  0  0  0  0  0  0  0  0
  -24.1561   -3.1104   29.4372 C   0  0  0  0  0  0  0  0  0  0  0  0
  -27.2463    2.5027   25.9263 C   0  0  0  0  0  0  0  0  0  0  0  0
  -28.6778    0.9126   24.7791 C   0  0  0  0  0  0  0  0  0  0  0  0
  -26.2862    2.9572   26.8277 C   0  0  0  0  0  0  0  0  0  0  0  0
  -26.1358    3.3654   27.7988 C   0  0  0  0  0  0  0  0  0  0  0  0
  -25.1701    3.6542   28.6249 C   0  0  0  0  0  0  0  0  0  0  0  0
  -23.9009    3.0753   28.2118 C   0  0  0  0  0  0  0  0  0  0  0  0
  -24.8931    2.3182   26.3385 C   0  0  0  0  0  0  0  0  0  0  0  0
  -23.8076    2.5212   27.0560 C   0  0  0  0  0  0  0  0  0  0  0  0
  -28.8728    1.6589   23.9305 F   0  0  0  0  0  0  0  0  0  0  0  0
  -28.1153   -0.2085   24.2056 F   0  0  0  0  0  0  0  0  0  0  0  0
  -29.8944    0.5025   25.2538 F   0  0  0  0  0  0  0  0  0  0  0  0
  -22.4815    2.0037   26.5901 C   0  0  0  0  0  0  0  0  0  0  0  0
  -21.5700    1.7507   27.4309 O   0  0  0  0  0  0  0  0  0  0  0  0
  -22.0986    2.2832   25.4106 O   0  0  0  0  0  0  0  0  0  0  0  0
  -23.7233   -1.8082   28.8861 C   0  0  0  0  0  0  0  0  0  0  0  0
  -22.5452   -1.1652   29.3561 C   0  0  0  0  0  0  0  0  0  0  0  0
  -22.5921    0.2374   29.3187 C   0  0  0  0  0  0  0  0  0  0  0  0
  -21.6826    0.6998   29.9878 C   0  0  0  0  0  0  0  0  0  0  0  0
  -27.4298    3.9586   28.3303 O   0  0  0  0  0  0  0  0  0  0  0  0
  -27.9036    5.1320   28.0130 C   0  0  0  0  0  0  0  0  0  0  0  0
  -29.2060    5.2266   27.6897 C   0  0  0  0  0  0  0  0  0  0  0  0
  -29.5864    6.2758   26.9079 C   0  0  0  0  0  0  0  0  0  0  0  0
  1  3  1  0
  3  4  1  0
  4  5  1  0
  3 10  2  0
  8 11  1  0
 11 12  1  0
 11 13  1  0
  5 14  2  3
  5 15  1  0
 14 16  1  0
 15 22  1  0
 15 23  1  0
 15 24  1  0
 21 25  1  0
 25 26  2  0
 25 27  1  0
 13 28  1  0
 28 29  2  3
 29 30  1  0
 30 31  1  0
 17 32  1  0
 32 33  1  0
 33 34  1  0
 34 35  2  0
 16 17  2  0
 17 18  1  0
 18 19  2  0
 19 21  1  0
 21 20  2  0
 20 16  1  0
  1  2  2  0
  2  6  1  0
  6  7  2  0
  7  8  1  0
  8  9  2  0
  9  1  1  0
M  END

$$$$
