No_3388-gen_results/8p0m/2024-11-27-11-27-31/
     RDKit          3D

 17 18  0  0  0  0  0  0  0  0999 V2000
  -28.0727   -1.2542   28.5316 F   0  0  0  0  0  0  0  0  0  0  0  0
  -27.3591   -0.3792   28.7224 C   0  0  0  0  0  0  0  0  0  0  0  0
  -26.3323   -0.6441   29.4520 C   0  0  0  0  0  0  0  0  0  0  0  0
  -25.2562    0.3203   29.7818 C   0  0  0  0  0  0  0  0  0  0  0  0
  -25.4242    1.6275   29.2026 C   0  0  0  0  0  0  0  0  0  0  0  0
  -26.5263    1.8254   28.4032 C   0  0  0  0  0  0  0  0  0  0  0  0
  -27.4513    0.8601   28.1355 C   0  0  0  0  0  0  0  0  0  0  0  0
  -28.5399    1.2022   27.2448 C   0  0  0  0  0  0  0  0  0  0  0  0
  -28.4423    2.0101   26.2543 C   0  0  0  0  0  0  0  0  0  0  0  0
  -29.4915    2.2231   25.3457 C   0  0  0  0  0  0  0  0  0  0  0  0
  -30.6227    1.4224   25.3995 C   0  0  0  0  0  0  0  0  0  0  0  0
  -30.6794    0.4779   26.4025 C   0  0  0  0  0  0  0  0  0  0  0  0
  -29.6789    0.3260   27.2833 C   0  0  0  0  0  0  0  0  0  0  0  0
  -32.0926   -0.4861   26.5026 Cl  0  0  0  0  0  0  0  0  0  0  0  0
  -24.2521    2.8016   29.5604 Cl  0  0  0  0  0  0  0  0  0  0  0  0
  -26.0835   -1.8279   30.0224 F   0  0  0  0  0  0  0  0  0  0  0  0
  -23.9404   -0.0154   30.8466 Cl  0  0  0  0  0  0  0  0  0  0  0  0
  1  2  1  0
  7  8  1  0
 12 14  1  0
  5 15  1  0
  3 16  1  0
  4 17  1  0
  2  3  2  0
  3  4  1  0
  4  5  2  0
  5  6  1  0
  6  7  2  0
  7  2  1  0
  8  9  2  0
  9 10  1  0
 10 11  2  0
 11 12  1  0
 12 13  2  0
 13  8  1  0
M  END

$$$$
