No_3321-gen_results/8p0m/2024-11-27-11-27-31/
     RDKit          3D

 18 20  0  0  0  0  0  0  0  0999 V2000
  -28.0162   -0.8135   28.8779 C   0  0  0  0  0  0  0  0  0  0  0  0
  -28.4690   -0.7850   29.8287 C   0  0  0  0  0  0  0  0  0  0  0  0
  -27.1356    0.2359   28.5352 C   0  0  0  0  0  0  0  0  0  0  0  0
  -26.8745    1.2825   29.3982 C   0  0  0  0  0  0  0  0  0  0  0  0
  -27.5070    1.2380   30.6295 C   0  0  0  0  0  0  0  0  0  0  0  0
  -28.3293    0.1745   30.9350 C   0  0  0  0  0  0  0  0  0  0  0  0
  -26.3055    0.2935   27.0232 Cl  0  0  0  0  0  0  0  0  0  0  0  0
  -29.0231    0.0868   32.2534 C   0  0  0  0  0  0  0  0  0  0  0  0
  -29.5421   -0.7426   32.6540 C   0  0  0  0  0  0  0  0  0  0  0  0
  -30.2312   -0.8280   33.9980 C   0  0  0  0  0  0  0  0  0  0  0  0
  -30.1278    0.3214   34.7857 C   0  0  0  0  0  0  0  0  0  0  0  0
  -29.4331    1.3923   34.3158 C   0  0  0  0  0  0  0  0  0  0  0  0
  -28.8193    1.3516   33.0894 C   0  0  0  0  0  0  0  0  0  0  0  0
  -29.2619    2.6202   35.1410 C   0  0  0  0  0  0  0  0  0  0  0  0
  -29.4410    2.8123   36.2327 O   0  0  0  0  0  0  0  0  0  0  0  0
  -28.6801    3.7428   34.3702 N   0  0  0  0  0  0  0  0  0  0  0  0
  -28.5036    3.8708   33.1211 C   0  0  0  0  0  0  0  0  0  0  0  0
  -28.3459    2.5552   32.4059 C   0  0  0  0  0  0  0  0  0  0  0  0
  3  7  1  0
  6  8  1  0
 12 14  1  0
 14 15  2  0
 14 16  1  0
 16 17  1  0
 13 18  1  0
 17 18  1  0
  1  2  2  0
  2  6  1  0
  6  5  2  0
  5  4  1  0
  4  3  2  0
  3  1  1  0
  8  9  2  0
  9 10  1  0
 10 11  2  0
 11 12  1  0
 12 13  2  0
 13  8  1  0
M  END

$$$$
