No_357-gen_results/8p0m/2024-11-27-11-27-31/
     RDKit          3D

 20 22  0  0  0  0  0  0  0  0999 V2000
  -28.0162   -0.8135   28.8779 C   0  0  0  0  0  0  0  0  0  0  0  0
  -28.4690   -0.7850   29.8287 C   0  0  0  0  0  0  0  0  0  0  0  0
  -27.0871    0.2903   28.6377 C   0  0  0  0  0  0  0  0  0  0  0  0
  -26.0238    0.3644   29.2526 C   0  0  0  0  0  0  0  0  0  0  0  0
  -24.9536    1.2658   28.9526 C   0  0  0  0  0  0  0  0  0  0  0  0
  -29.4201   -1.9635   30.1650 C   0  0  0  0  0  0  0  0  0  0  0  0
  -25.0437    2.0377   27.7671 C   0  0  0  0  0  0  0  0  0  0  0  0
  -23.9882    2.9362   27.4241 C   0  0  0  0  0  0  0  0  0  0  0  0
  -26.1848    1.8729   26.9589 C   0  0  0  0  0  0  0  0  0  0  0  0
  -27.1138    0.9377   27.2987 C   0  0  0  0  0  0  0  0  0  0  0  0
  -29.5549   -2.5995   31.0695 C   0  0  0  0  0  0  0  0  0  0  0  0
  -30.4079   -3.7587   31.1299 C   0  0  0  0  0  0  0  0  0  0  0  0
  -30.4496   -4.7036   31.9692 C   0  0  0  0  0  0  0  0  0  0  0  0
  -31.1226   -5.8716   31.8102 C   0  0  0  0  0  0  0  0  0  0  0  0
  -31.8638   -6.0677   30.6405 C   0  0  0  0  0  0  0  0  0  0  0  0
  -31.8253   -5.1148   29.6482 C   0  0  0  0  0  0  0  0  0  0  0  0
  -31.0329   -3.9708   29.8528 C   0  0  0  0  0  0  0  0  0  0  0  0
  -30.9371   -3.0972   28.9395 O   0  0  0  0  0  0  0  0  0  0  0  0
  -30.1222   -2.1881   28.9732 C   0  0  0  0  0  0  0  0  0  0  0  0
  -29.8769   -1.4538   27.9062 F   0  0  0  0  0  0  0  0  0  0  0  0
  1  2  1  0
  1  3  1  0
  2  6  2  3
  7  8  1  0
  6 11  1  0
 11 12  1  0
 17 18  1  0
  6 19  1  0
 18 19  1  0
 19 20  1  0
 12 13  2  0
 13 14  1  0
 14 15  2  0
 15 16  1  0
 16 17  2  0
 17 12  1  0
  3  4  2  0
  4  5  1  0
  5  7  2  0
  7  9  1  0
  9 10  2  0
 10  3  1  0
M  END

$$$$
