No_3081-gen_results/8p0m/2024-11-27-11-27-31/
     RDKit          3D

 19 21  0  0  0  0  0  0  0  0999 V2000
  -28.0162   -0.8135   28.8779 C   0  0  0  0  0  0  0  0  0  0  0  0
  -27.0636   -0.1189   28.6079 C   0  0  0  0  0  0  0  0  0  0  0  0
  -25.7923   -0.4302   29.0761 C   0  0  0  0  0  0  0  0  0  0  0  0
  -25.5756   -1.5654   29.9363 C   0  0  0  0  0  0  0  0  0  0  0  0
  -26.7354   -2.3004   30.2173 C   0  0  0  0  0  0  0  0  0  0  0  0
  -27.9184   -1.9537   29.7629 C   0  0  0  0  0  0  0  0  0  0  0  0
  -27.1057    1.1023   27.7593 C   0  0  0  0  0  0  0  0  0  0  0  0
  -27.8576    1.5309   27.2156 C   0  0  0  0  0  0  0  0  0  0  0  0
  -29.2421    0.8816   27.2919 C   0  0  0  0  0  0  0  0  0  0  0  0
  -30.1363    1.1221   26.2917 C   0  0  0  0  0  0  0  0  0  0  0  0
  -29.8994    2.2403   25.4306 C   0  0  0  0  0  0  0  0  0  0  0  0
  -28.7143    2.9514   25.3572 C   0  0  0  0  0  0  0  0  0  0  0  0
  -27.7288    2.5759   26.1326 C   0  0  0  0  0  0  0  0  0  0  0  0
  -29.4032   -0.6069   28.4139 N   0  0  0  0  0  0  0  0  0  0  0  0
  -30.6100   -0.8514   28.6543 C   0  0  0  0  0  0  0  0  0  0  0  0
  -31.0561   -0.2444   29.7914 C   0  0  0  0  0  0  0  0  0  0  0  0
  -32.2714   -0.4802   30.2820 Br  0  0  0  0  0  0  0  0  0  0  0  0
  -30.2116    0.5691   30.4903 O   0  0  0  0  0  0  0  0  0  0  0  0
  -31.2791   -1.4043   27.7997 O   0  0  0  0  0  0  0  0  0  0  0  0
  2  7  1  0
  1 14  1  0
  9 14  1  0
 14 15  1  0
 15 16  1  0
 16 17  1  0
 16 18  2  0
 15 19  2  0
  7  8  1  0
  1  2  1  0
  2  3  2  0
  3  4  1  0
  4  5  2  0
  5  6  1  0
  6  1  2  0
  8  9  2  0
  9 10  1  0
 10 11  2  0
 11 12  1  0
 12 13  2  0
 13  8  1  0
M  END

$$$$
