No_339-gen_results/8p0m/2024-11-27-11-27-31/
     RDKit          3D

 27 31  0  0  0  0  0  0  0  0999 V2000
  -28.0162   -0.8135   28.8779 C   0  0  0  0  0  0  0  0  0  0  0  0
  -28.4690   -0.7850   29.8287 C   0  0  0  0  0  0  0  0  0  0  0  0
  -26.5042   -0.7777   28.8766 C   0  0  0  0  0  0  0  0  0  0  0  0
  -25.9150   -0.6580   29.9230 C   0  0  0  0  0  0  0  0  0  0  0  0
  -27.9691   -0.7243   31.2047 C   0  0  0  0  0  0  0  0  0  0  0  0
  -26.5847   -0.6393   31.2062 C   0  0  0  0  0  0  0  0  0  0  0  0
  -29.9784   -0.8718   29.8875 N   0  0  0  0  0  0  0  0  0  0  0  0
  -30.6456   -0.2366   29.0300 C   0  0  0  0  0  0  0  0  0  0  0  0
  -30.1807    0.5691   28.2655 N   0  0  0  0  0  0  0  0  0  0  0  0
  -31.9218   -0.5261   29.1147 O   0  0  0  0  0  0  0  0  0  0  0  0
  -31.0263    1.2830   27.2552 C   0  0  0  0  0  0  0  0  0  0  0  0
  -30.3486    1.7486   26.2414 C   0  0  0  0  0  0  0  0  0  0  0  0
  -28.9835    1.8365   26.1991 C   0  0  0  0  0  0  0  0  0  0  0  0
  -28.2424    2.1602   25.0340 C   0  0  0  0  0  0  0  0  0  0  0  0
  -26.8394    2.1107   25.1079 C   0  0  0  0  0  0  0  0  0  0  0  0
  -26.1124    2.0499   26.3008 C   0  0  0  0  0  0  0  0  0  0  0  0
  -26.8882    1.9061   27.4750 C   0  0  0  0  0  0  0  0  0  0  0  0
  -28.2702    1.7998   27.4592 C   0  0  0  0  0  0  0  0  0  0  0  0
  -28.8564    0.9248   28.3098 C   0  0  0  0  0  0  0  0  0  0  0  0
  -28.4324    1.6334   29.5909 C   0  0  0  0  0  0  0  0  0  0  0  0
  -28.4085   -0.0201   27.6443 N   0  0  0  0  0  0  0  0  0  0  0  0
  -29.3257    2.9139   29.8269 C   0  0  0  0  0  0  0  0  0  0  0  0
  -29.2575    3.6020   30.7073 C   0  0  0  0  0  0  0  0  0  0  0  0
  -28.2882    3.3640   31.8281 C   0  0  0  0  0  0  0  0  0  0  0  0
  -28.3163    4.0173   33.0429 C   0  0  0  0  0  0  0  0  0  0  0  0
  -27.7456    1.9381   30.3073 C   0  0  0  0  0  0  0  0  0  0  0  0
  -27.5721    2.4932   31.5563 C   0  0  0  0  0  0  0  0  0  0  0  0
  2  7  1  0
  7  8  1  0
  8  9  1  0
  8 10  2  0
  9 11  1  0
 12 13  1  0
  9 19  1  0
 18 19  1  0
 19 20  1  0
  1 21  1  0
 19 21  1  0
 25 24  1  0
 11 12  1  0
 13 14  2  0
 14 15  1  0
 15 16  2  0
 16 17  1  0
 17 18  2  0
 18 13  1  0
 20 22  2  0
 22 23  1  0
 23 24  2  0
 24 27  1  0
 27 26  2  0
 26 20  1  0
  1  2  2  0
  2  5  1  0
  5  6  2  0
  6  4  1  0
  4  3  2  0
  3  1  1  0
M  END

$$$$
