No_3659-gen_results/8p0m/2024-11-27-11-27-31/
     RDKit          3D

 16 17  0  0  0  0  0  0  0  0999 V2000
  -28.0162   -0.8135   28.8779 C   0  0  0  0  0  0  0  0  0  0  0  0
  -28.4690   -0.7850   29.8287 C   0  0  0  0  0  0  0  0  0  0  0  0
  -26.5455   -0.8762   28.8500 C   0  0  0  0  0  0  0  0  0  0  0  0
  -25.6825   -0.7773   27.6829 C   0  0  0  0  0  0  0  0  0  0  0  0
  -27.9181   -1.0034   31.1877 C   0  0  0  0  0  0  0  0  0  0  0  0
  -26.5308   -1.0794   31.2463 C   0  0  0  0  0  0  0  0  0  0  0  0
  -25.7798   -1.0462   30.0905 C   0  0  0  0  0  0  0  0  0  0  0  0
  -25.8976    0.2387   26.7449 C   0  0  0  0  0  0  0  0  0  0  0  0
  -24.9256    0.7629   26.0322 C   0  0  0  0  0  0  0  0  0  0  0  0
  -23.6887    0.9127   26.4601 C   0  0  0  0  0  0  0  0  0  0  0  0
  -23.2912    0.3782   27.7204 C   0  0  0  0  0  0  0  0  0  0  0  0
  -24.6904   -1.6864   27.3314 C   0  0  0  0  0  0  0  0  0  0  0  0
  -22.0307    0.9139   28.3493 C   0  0  0  0  0  0  0  0  0  0  0  0
  -23.6178   -0.8779   28.1745 C   0  0  0  0  0  0  0  0  0  0  0  0
  -21.7768    2.1153   28.1884 O   0  0  0  0  0  0  0  0  0  0  0  0
  -21.3871    0.1925   29.1916 O   0  0  0  0  0  0  0  0  0  0  0  0
  3  4  1  0
  4  8  1  0
  8  9  2  0
  9 10  1  0
 10 11  2  0
  4 12  1  0
 11 13  1  0
 11 14  1  0
 12 14  1  0
 13 15  2  0
 13 16  1  0
  1  2  2  0
  2  5  1  0
  5  6  2  0
  6  7  1  0
  7  3  2  0
  3  1  1  0
M  END

$$$$
