No_3456-gen_results/8p0m/2024-11-27-11-27-31/
     RDKit          3D

 20 21  0  0  0  0  0  0  0  0999 V2000
  -28.0162   -0.8135   28.8779 C   0  0  0  0  0  0  0  0  0  0  0  0
  -27.0636   -0.1190   28.6079 C   0  0  0  0  0  0  0  0  0  0  0  0
  -25.7647   -0.3897   29.0360 C   0  0  0  0  0  0  0  0  0  0  0  0
  -24.5516    0.4058   28.7646 C   0  0  0  0  0  0  0  0  0  0  0  0
  -24.6957    1.4480   27.7988 C   0  0  0  0  0  0  0  0  0  0  0  0
  -23.5821    2.2165   27.4626 C   0  0  0  0  0  0  0  0  0  0  0  0
  -22.3295    1.8427   27.9661 C   0  0  0  0  0  0  0  0  0  0  0  0
  -22.1809    0.8284   28.8814 C   0  0  0  0  0  0  0  0  0  0  0  0
  -23.3190    0.0774   29.2471 C   0  0  0  0  0  0  0  0  0  0  0  0
  -27.8976   -1.8938   29.8574 C   0  0  0  0  0  0  0  0  0  0  0  0
  -26.6550   -2.3404   30.2745 C   0  0  0  0  0  0  0  0  0  0  0  0
  -25.5323   -1.5588   29.9128 C   0  0  0  0  0  0  0  0  0  0  0  0
  -29.0612   -2.7220   30.2437 C   0  0  0  0  0  0  0  0  0  0  0  0
  -28.9412   -4.0233   30.3896 N   0  0  0  0  0  0  0  0  0  0  0  0
  -29.9903   -4.8916   30.1309 C   0  0  0  0  0  0  0  0  0  0  0  0
  -30.3896   -5.7153   31.2051 C   0  0  0  0  0  0  0  0  0  0  0  0
  -31.5943   -5.4205   31.7051 C   0  0  0  0  0  0  0  0  0  0  0  0
  -32.6294   -5.9528   31.0586 C   0  0  0  0  0  0  0  0  0  0  0  0
  -30.1411   -2.1745   30.4603 O   0  0  0  0  0  0  0  0  0  0  0  0
  -32.5812   -5.8753   29.8413 C   0  0  0  0  0  0  0  0  0  0  0  0
  3  4  1  0
 10 13  1  0
 13 14  1  0
 14 15  1  0
 15 16  1  0
 16 17  1  0
 17 18  1  0
 13 19  2  0
 18 20  3  0
  1  2  2  0
  2  3  1  0
  3 12  2  0
 12 11  1  0
 11 10  2  0
 10  1  1  0
  4  5  2  0
  5  6  1  0
  6  7  2  0
  7  8  1  0
  8  9  2  0
  9  4  1  0
M  END

$$$$
