No_3812-gen_results/8p0m/2024-11-27-11-27-31/
     RDKit          3D

 13 14  0  0  0  0  0  0  0  0999 V2000
  -28.0162   -0.8135   28.8779 C   0  0  0  0  0  0  0  0  0  0  0  0
  -27.0636   -0.1190   28.6079 C   0  0  0  0  0  0  0  0  0  0  0  0
  -25.7923   -0.4302   29.0761 C   0  0  0  0  0  0  0  0  0  0  0  0
  -25.5756   -1.5654   29.9363 C   0  0  0  0  0  0  0  0  0  0  0  0
  -26.7354   -2.3004   30.2173 C   0  0  0  0  0  0  0  0  0  0  0  0
  -27.9184   -1.9537   29.7629 C   0  0  0  0  0  0  0  0  0  0  0  0
  -28.9649   -2.6957   30.0722 F   0  0  0  0  0  0  0  0  0  0  0  0
  -24.5349    0.3596   28.8024 C   0  0  0  0  0  0  0  0  0  0  0  0
  -23.3564    0.0095   29.1902 C   0  0  0  0  0  0  0  0  0  0  0  0
  -22.1810    0.7788   28.8104 C   0  0  0  0  0  0  0  0  0  0  0  0
  -22.3133    1.7458   27.7943 C   0  0  0  0  0  0  0  0  0  0  0  0
  -24.6319    1.3996   27.7908 C   0  0  0  0  0  0  0  0  0  0  0  0
  -23.5004    2.0943   27.3869 C   0  0  0  0  0  0  0  0  0  0  0  0
  6  7  1  0
  3  8  1  0
  1  2  2  0
  2  3  1  0
  3  4  2  0
  4  5  1  0
  5  6  2  0
  6  1  1  0
  8  9  2  0
  9 10  1  0
 10 11  2  0
 11 13  1  0
 13 12  2  0
 12  8  1  0
M  END

$$$$
