No_3126-gen_results/8p0m/2024-11-27-11-27-31/
     RDKit          3D

 20 22  0  0  0  0  0  0  0  0999 V2000
  -28.0162   -0.8135   28.8779 C   0  0  0  0  0  0  0  0  0  0  0  0
  -27.0636   -0.1190   28.6079 C   0  0  0  0  0  0  0  0  0  0  0  0
  -26.9716    0.7139   27.5060 C   0  0  0  0  0  0  0  0  0  0  0  0
  -28.1053    0.7744   26.6421 C   0  0  0  0  0  0  0  0  0  0  0  0
  -29.2008    0.1044   27.0527 C   0  0  0  0  0  0  0  0  0  0  0  0
  -29.2096   -0.6029   28.1853 C   0  0  0  0  0  0  0  0  0  0  0  0
  -30.4815    0.1441   26.3452 C   0  0  0  0  0  0  0  0  0  0  0  0
  -31.9172   -0.2812   27.0236 P   0  0  0  0  0  0  0  0  0  0  0  0
  -32.6060    0.5982   27.0489 O   0  0  0  0  0  0  0  0  0  0  0  0
  -31.3918   -0.7076   28.3977 O   0  0  0  0  0  0  0  0  0  0  0  0
  -32.2512   -1.5733   26.2792 O   0  0  0  0  0  0  0  0  0  0  0  0
  -30.1691   -1.0630   28.7927 C   0  0  0  0  0  0  0  0  0  0  0  0
  -30.4950    1.3534   25.6494 O   0  0  0  0  0  0  0  0  0  0  0  0
  -25.6647   -0.2278   29.3744 C   0  0  0  0  0  0  0  0  0  0  0  0
  -25.3118   -1.2674   29.9154 C   0  0  0  0  0  0  0  0  0  0  0  0
  -26.0578   -2.4761   29.8312 C   0  0  0  0  0  0  0  0  0  0  0  0
  -27.8789   -1.9525   29.7655 C   0  0  0  0  0  0  0  0  0  0  0  0
  -31.5466   -2.3792   24.9836 Cl  0  0  0  0  0  0  0  0  0  0  0  0
  -25.6965    1.4885   27.1124 C   0  0  0  0  0  0  0  0  0  0  0  0
  -24.5982    2.1620   27.2527 Cl  0  0  0  0  0  0  0  0  0  0  0  0
  5  7  1  0
  7  8  1  0
  8  9  2  0
  8 10  1  0
  8 11  1  0
  6 12  1  0
 10 12  1  0
  7 13  1  0
 11 18  1  0
  3 19  1  0
 19 20  1  0
  2 14  1  0
 14 15  2  0
 15 16  1  0
 16 17  2  0
 17  1  1  0
  1  2  1  0
  2  3  2  0
  3  4  1  0
  4  5  2  0
  5  6  1  0
  6  1  2  0
M  END

$$$$
