No_3296-gen_results/8p0m/2024-11-27-11-27-31/
     RDKit          3D

 12 13  0  0  0  0  0  0  0  0999 V2000
  -28.0162   -0.8135   28.8779 C   0  0  0  0  0  0  0  0  0  0  0  0
  -28.4690   -0.7850   29.8287 C   0  0  0  0  0  0  0  0  0  0  0  0
  -27.1356    0.2359   28.5352 C   0  0  0  0  0  0  0  0  0  0  0  0
  -26.8745    1.2825   29.3982 C   0  0  0  0  0  0  0  0  0  0  0  0
  -29.3953   -1.9237   30.2863 C   0  0  0  0  0  0  0  0  0  0  0  0
  -27.5236    1.2090   30.6379 C   0  0  0  0  0  0  0  0  0  0  0  0
  -28.3224    0.1273   30.9590 C   0  0  0  0  0  0  0  0  0  0  0  0
  -29.1507   -3.1704   30.4068 N   0  0  0  0  0  0  0  0  0  0  0  0
  -30.8406   -1.6782   30.5786 C   0  0  0  0  0  0  0  0  0  0  0  0
  -31.6677   -2.7074   30.8315 C   0  0  0  0  0  0  0  0  0  0  0  0
  -29.8497   -4.2342   30.6481 C   0  0  0  0  0  0  0  0  0  0  0  0
  -31.2045   -4.0169   30.8977 C   0  0  0  0  0  0  0  0  0  0  0  0
  2  5  1  0
  5  8  2  0
  8 11  1  0
 11 12  2  0
 12 10  1  0
 10  9  2  0
  9  5  1  0
  1  2  2  0
  2  7  1  0
  7  6  2  0
  6  4  1  0
  4  3  2  0
  3  1  1  0
M  END

$$$$
