No_3572-gen_results/8p0m/2024-11-27-11-27-31/
     RDKit          3D

 16 16  0  0  0  0  0  0  0  0999 V2000
  -28.0162   -0.8135   28.8779 C   0  0  0  0  0  0  0  0  0  0  0  0
  -27.0636   -0.1189   28.6079 C   0  0  0  0  0  0  0  0  0  0  0  0
  -27.0788    0.9846   29.1738 F   0  0  0  0  0  0  0  0  0  0  0  0
  -25.9956   -0.3885   27.6940 C   0  0  0  0  0  0  0  0  0  0  0  0
  -25.8830    0.3794   26.6654 N   0  0  0  0  0  0  0  0  0  0  0  0
  -28.5097   -0.7860   30.3114 C   0  0  0  0  0  0  0  0  0  0  0  0
  -28.9000   -1.7654   30.7877 O   0  0  0  0  0  0  0  0  0  0  0  0
  -24.8908   -1.2302   28.0188 C   0  0  0  0  0  0  0  0  0  0  0  0
  -24.8229    0.1364   25.7522 C   0  0  0  0  0  0  0  0  0  0  0  0
  -24.8718   -2.0454   29.2650 C   0  0  0  0  0  0  0  0  0  0  0  0
  -23.8326   -2.9073   29.4445 C   0  0  0  0  0  0  0  0  0  0  0  0
  -24.9182    0.9726   24.6762 N   0  0  0  0  0  0  0  0  0  0  0  0
  -28.0991    0.1048   31.1028 O   0  0  0  0  0  0  0  0  0  0  0  0
  -26.7880    1.3180   26.2389 C   0  0  0  0  0  0  0  0  0  0  0  0
  -25.7683    1.8788   24.7974 C   0  0  0  0  0  0  0  0  0  0  0  0
  -25.9652   -2.0746   30.1391 C   0  0  0  0  0  0  0  0  0  0  0  0
  1  2  1  0
  2  3  1  0
  2  4  1  0
  4  5  1  0
  1  6  1  0
  6  7  2  0
  4  8  1  0
  5  9  1  0
  8 10  1  0
 10 11  2  0
  9 12  1  0
  6 13  1  0
  5 14  1  0
 12 15  2  0
 14 15  2  0
 10 16  1  0
M  END

$$$$
