No_3447-gen_results/8p0m/2024-11-27-11-27-31/
     RDKit          3D

 14 14  0  0  0  0  0  0  0  0999 V2000
  -28.0162   -0.8135   28.8779 C   0  0  0  0  0  0  0  0  0  0  0  0
  -27.0636   -0.1189   28.6079 C   0  0  0  0  0  0  0  0  0  0  0  0
  -26.9287    1.1713   29.0083 C   0  0  0  0  0  0  0  0  0  0  0  0
  -27.9560    1.7411   29.7840 C   0  0  0  0  0  0  0  0  0  0  0  0
  -29.0569   -0.3271   29.7466 C   0  0  0  0  0  0  0  0  0  0  0  0
  -28.9828    0.9722   30.1516 C   0  0  0  0  0  0  0  0  0  0  0  0
  -26.0278   -0.5935   27.8711 F   0  0  0  0  0  0  0  0  0  0  0  0
  -30.2418    1.5803   31.1479 Cl  0  0  0  0  0  0  0  0  0  0  0  0
  -25.7486    2.0101   28.5753 C   0  0  0  0  0  0  0  0  0  0  0  0
  -25.8915    3.1833   27.8674 C   0  0  0  0  0  0  0  0  0  0  0  0
  -24.4184    1.6580   28.9809 C   0  0  0  0  0  0  0  0  0  0  0  0
  -23.5950    1.0253   28.2945 C   0  0  0  0  0  0  0  0  0  0  0  0
  -22.2898    0.5386   28.8364 C   0  0  0  0  0  0  0  0  0  0  0  0
  -22.4268    0.1060   30.1165 C   0  0  0  0  0  0  0  0  0  0  0  0
  2  7  1  0
  6  8  1  0
  3  9  1  0
  9 10  1  0
  9 11  1  0
 11 12  1  0
 12 13  2  3
 13 14  1  0
  1  2  2  0
  2  3  1  0
  3  4  2  0
  4  6  1  0
  6  5  2  0
  5  1  1  0
M  END

$$$$
