No_3141-gen_results/8p0m/2024-11-27-11-27-31/
     RDKit          3D

 14 15  0  0  0  0  0  0  0  0999 V2000
  -28.0162   -0.8135   28.8779 C   0  0  0  0  0  0  0  0  0  0  0  0
  -28.4690   -0.7850   29.8287 C   0  0  0  0  0  0  0  0  0  0  0  0
  -28.1960    0.3478   28.0550 C   0  0  0  0  0  0  0  0  0  0  0  0
  -29.0191    1.3501   28.3782 C   0  0  0  0  0  0  0  0  0  0  0  0
  -29.6249    1.2683   29.6012 C   0  0  0  0  0  0  0  0  0  0  0  0
  -29.3821    0.1816   30.4004 C   0  0  0  0  0  0  0  0  0  0  0  0
  -27.4497    0.3750   26.7070 C   0  0  0  0  0  0  0  0  0  0  0  0
  -25.9701    0.4006   26.7755 C   0  0  0  0  0  0  0  0  0  0  0  0
  -25.3164   -0.0839   27.8630 C   0  0  0  0  0  0  0  0  0  0  0  0
  -23.9163    0.0471   27.9627 C   0  0  0  0  0  0  0  0  0  0  0  0
  -23.2528    0.9805   27.1711 C   0  0  0  0  0  0  0  0  0  0  0  0
  -23.9178    1.6518   26.1334 C   0  0  0  0  0  0  0  0  0  0  0  0
  -25.3267    1.3965   25.9602 C   0  0  0  0  0  0  0  0  0  0  0  0
  -29.2337    2.4669   27.5019 C   0  0  0  0  0  0  0  0  0  0  0  0
  3  7  1  0
  7  8  1  0
  4 14  1  0
  1  2  2  0
  2  6  1  0
  6  5  2  0
  5  4  1  0
  4  3  2  0
  3  1  1  0
  8  9  2  0
  9 10  1  0
 10 11  2  0
 11 12  1  0
 12 13  2  0
 13  8  1  0
M  END

$$$$
