No_3034-gen_results/8p0m/2024-11-27-11-27-31/
     RDKit          3D

 28 31  0  0  0  0  0  0  0  0999 V2000
  -28.0162   -0.8135   28.8779 C   0  0  0  0  0  0  0  0  0  0  0  0
  -27.0636   -0.1189   28.6079 C   0  0  0  0  0  0  0  0  0  0  0  0
  -25.7647   -0.3897   29.0360 C   0  0  0  0  0  0  0  0  0  0  0  0
  -24.5517    0.4058   28.7646 C   0  0  0  0  0  0  0  0  0  0  0  0
  -23.2300    0.1178   29.2575 C   0  0  0  0  0  0  0  0  0  0  0  0
  -22.1394    0.9427   28.9224 C   0  0  0  0  0  0  0  0  0  0  0  0
  -27.8294   -1.9287   29.8545 C   0  0  0  0  0  0  0  0  0  0  0  0
  -26.5882   -2.3272   30.2682 C   0  0  0  0  0  0  0  0  0  0  0  0
  -25.4565   -1.5432   29.9146 C   0  0  0  0  0  0  0  0  0  0  0  0
  -22.2302    1.9089   27.8723 C   0  0  0  0  0  0  0  0  0  0  0  0
  -24.5538    1.4700   27.7617 C   0  0  0  0  0  0  0  0  0  0  0  0
  -23.4471    2.1666   27.3764 C   0  0  0  0  0  0  0  0  0  0  0  0
  -29.2562   -2.7403   30.3181 Cl  0  0  0  0  0  0  0  0  0  0  0  0
  -23.4384    3.0428   26.3662 O   0  0  0  0  0  0  0  0  0  0  0  0
  -23.8107    2.5179   25.1806 C   0  0  0  0  0  0  0  0  0  0  0  0
  -27.2556    1.2333   27.5041 Cl  0  0  0  0  0  0  0  0  0  0  0  0
  -24.3332   -1.8787   30.3684 O   0  0  0  0  0  0  0  0  0  0  0  0
  -23.1660   -1.0991   30.1096 C   0  0  0  0  0  0  0  0  0  0  0  0
  -29.2769   -0.6104   28.5172 O   0  0  0  0  0  0  0  0  0  0  0  0
  -30.2411   -0.2752   29.2836 C   0  0  0  0  0  0  0  0  0  0  0  0
  -31.3551   -0.1658   28.8569 C   0  0  0  0  0  0  0  0  0  0  0  0
  -31.5558   -0.1493   27.4594 C   0  0  0  0  0  0  0  0  0  0  0  0
  -32.8307   -0.4496   26.8694 C   0  0  0  0  0  0  0  0  0  0  0  0
  -32.6259   -0.0804   29.5452 C   0  0  0  0  0  0  0  0  0  0  0  0
  -33.8810   -0.1804   29.0084 C   0  0  0  0  0  0  0  0  0  0  0  0
  -33.9687   -0.3002   27.6117 C   0  0  0  0  0  0  0  0  0  0  0  0
  -35.1537   -0.3895   26.9877 O   0  0  0  0  0  0  0  0  0  0  0  0
  -35.5552   -0.9147   26.0515 C   0  0  0  0  0  0  0  0  0  0  0  0
  3  4  1  0
  7 13  1  0
 12 14  1  0
 14 15  1  0
  2 16  1  0
  9 17  1  0
  5 18  1  0
 17 18  1  0
  1 19  1  0
 19 20  1  0
 26 27  1  0
 27 28  1  0
 20 21  1  0
 21 22  2  0
 22 23  1  0
 23 26  2  0
 26 25  1  0
 25 24  2  0
 24 21  1  0
  1  2  2  0
  2  3  1  0
  3  9  2  0
  9  8  1  0
  8  7  2  0
  7  1  1  0
  4  5  2  0
  5  6  1  0
  6 10  2  0
 10 12  1  0
 12 11  2  0
 11  4  1  0
M  END

$$$$
