No_3098-gen_results/8p0m/2024-11-27-11-27-31/
     RDKit          3D

 21 22  0  0  0  0  0  0  0  0999 V2000
  -28.0162   -0.8135   28.8779 C   0  0  0  0  0  0  0  0  0  0  0  0
  -27.0636   -0.1189   28.6079 C   0  0  0  0  0  0  0  0  0  0  0  0
  -26.9716    0.7139   27.5060 C   0  0  0  0  0  0  0  0  0  0  0  0
  -28.1053    0.7744   26.6421 C   0  0  0  0  0  0  0  0  0  0  0  0
  -29.2041    0.1179   27.0477 C   0  0  0  0  0  0  0  0  0  0  0  0
  -29.2127   -0.6088   28.1281 C   0  0  0  0  0  0  0  0  0  0  0  0
  -30.3709    0.2326   26.1381 C   0  0  0  0  0  0  0  0  0  0  0  0
  -30.3086    0.1051   24.9412 O   0  0  0  0  0  0  0  0  0  0  0  0
  -31.5786    0.2663   26.6747 O   0  0  0  0  0  0  0  0  0  0  0  0
  -25.6670    1.4055   27.1237 C   0  0  0  0  0  0  0  0  0  0  0  0
  -25.3007    1.9814   26.3398 N   0  0  0  0  0  0  0  0  0  0  0  0
  -23.9745    2.5288   26.2739 C   0  0  0  0  0  0  0  0  0  0  0  0
  -23.2491    2.0445   27.3542 C   0  0  0  0  0  0  0  0  0  0  0  0
  -24.4397    1.1343   28.0838 C   0  0  0  0  0  0  0  0  0  0  0  0
  -22.2154    1.1958   27.3146 C   0  0  0  0  0  0  0  0  0  0  0  0
  -24.1907    0.2956   29.1081 C   0  0  0  0  0  0  0  0  0  0  0  0
  -24.3475    0.4505   30.1126 C   0  0  0  0  0  0  0  0  0  0  0  0
  -23.6853   -1.0296   28.5872 C   0  0  0  0  0  0  0  0  0  0  0  0
  -24.5741    1.8117   30.7989 C   0  0  0  0  0  0  0  0  0  0  0  0
  -24.1460   -0.5331   31.2667 C   0  0  0  0  0  0  0  0  0  0  0  0
  -24.4228   -0.2684   32.5862 C   0  0  0  0  0  0  0  0  0  0  0  0
  5  7  1  0
  7  8  2  0
  7  9  1  0
  3 10  1  0
 10 11  2  0
 11 12  1  0
 12 13  2  0
 10 14  1  0
 13 14  1  0
 13 15  1  0
 14 16  1  0
 16 17  1  0
 16 18  1  0
 17 19  1  0
 17 20  1  0
 20 21  1  0
  1  2  2  0
  2  3  1  0
  3  4  2  0
  4  5  1  0
  5  6  2  0
  6  1  1  0
M  END

$$$$
