No_3339-gen_results/8p0m/2024-11-27-11-27-31/
     RDKit          3D

 24 25  0  0  0  0  0  0  0  0999 V2000
  -28.0162   -0.8135   28.8779 C   0  0  0  0  0  0  0  0  0  0  0  0
  -27.0636   -0.1189   28.6079 C   0  0  0  0  0  0  0  0  0  0  0  0
  -27.0010    0.6913   27.4910 C   0  0  0  0  0  0  0  0  0  0  0  0
  -28.1373    0.7363   26.6350 C   0  0  0  0  0  0  0  0  0  0  0  0
  -29.2360    0.0765   27.0690 C   0  0  0  0  0  0  0  0  0  0  0  0
  -29.2177   -0.6429   28.1747 C   0  0  0  0  0  0  0  0  0  0  0  0
  -30.4152    0.1590   26.1819 C   0  0  0  0  0  0  0  0  0  0  0  0
  -31.2774   -0.5117   26.4083 O   0  0  0  0  0  0  0  0  0  0  0  0
  -30.4220    0.9338   25.1099 O   0  0  0  0  0  0  0  0  0  0  0  0
  -25.5229   -0.2183   29.5637 Cl  0  0  0  0  0  0  0  0  0  0  0  0
  -28.0129   -1.6367   30.0797 N   0  0  0  0  0  0  0  0  0  0  0  0
  -27.2097   -2.7184   30.1845 C   0  0  0  0  0  0  0  0  0  0  0  0
  -29.0033   -1.4921   31.0636 C   0  0  0  0  0  0  0  0  0  0  0  0
  -27.8246   -4.0154   30.1880 C   0  0  0  0  0  0  0  0  0  0  0  0
  -28.9196   -4.1534   31.1821 C   0  0  0  0  0  0  0  0  0  0  0  0
  -29.6880   -5.3245   31.2865 C   0  0  0  0  0  0  0  0  0  0  0  0
  -29.6987   -2.8431   31.2501 C   0  0  0  0  0  0  0  0  0  0  0  0
  -29.3672   -5.9713   32.2965 O   0  0  0  0  0  0  0  0  0  0  0  0
  -30.2719   -5.8329   30.2663 O   0  0  0  0  0  0  0  0  0  0  0  0
  -31.6642   -5.8482   30.2504 C   0  0  0  0  0  0  0  0  0  0  0  0
  -32.0691   -5.4795   29.2454 C   0  0  0  0  0  0  0  0  0  0  0  0
  -31.3539   -5.0541   28.1623 C   0  0  0  0  0  0  0  0  0  0  0  0
  -31.9949   -4.5823   26.8572 C   0  0  0  0  0  0  0  0  0  0  0  0
  -33.3623   -4.5901   26.8075 C   0  0  0  0  0  0  0  0  0  0  0  0
  5  7  1  0
  7  8  1  0
  7  9  2  0
  2 10  1  0
  1 11  1  0
 11 12  1  0
 11 13  1  0
 12 14  1  0
 14 15  1  0
 15 16  1  0
 13 17  1  0
 15 17  1  0
 16 18  2  0
 16 19  1  0
 19 20  1  0
 20 21  2  3
 21 22  1  0
 22 23  2  3
 23 24  1  0
  1  2  2  0
  2  3  1  0
  3  4  2  0
  4  5  1  0
  5  6  2  0
  6  1  1  0
M  END

$$$$
