No_3046-gen_results/8p0m/2024-11-27-11-27-31/
     RDKit          3D

 15 16  0  0  0  0  0  0  0  0999 V2000
  -28.0162   -0.8135   28.8779 C   0  0  0  0  0  0  0  0  0  0  0  0
  -27.0636   -0.1190   28.6079 C   0  0  0  0  0  0  0  0  0  0  0  0
  -25.7923   -0.4302   29.0761 C   0  0  0  0  0  0  0  0  0  0  0  0
  -24.6321    0.3096   28.7290 C   0  0  0  0  0  0  0  0  0  0  0  0
  -29.3279   -0.3101   28.7247 C   0  0  0  0  0  0  0  0  0  0  0  0
  -23.2463    0.0278   29.1933 C   0  0  0  0  0  0  0  0  0  0  0  0
  -29.5294    0.6987   27.8160 C   0  0  0  0  0  0  0  0  0  0  0  0
  -28.4155    1.3842   27.3105 C   0  0  0  0  0  0  0  0  0  0  0  0
  -27.0988    1.0495   27.7712 C   0  0  0  0  0  0  0  0  0  0  0  0
  -23.0820   -1.2400   29.7180 C   0  0  0  0  0  0  0  0  0  0  0  0
  -25.3596   -1.6567   29.7575 C   0  0  0  0  0  0  0  0  0  0  0  0
  -24.0913   -2.0297   30.0595 C   0  0  0  0  0  0  0  0  0  0  0  0
  -30.8668    1.1422   27.4604 C   0  0  0  0  0  0  0  0  0  0  0  0
  -31.8046    0.9589   28.0353 O   0  0  0  0  0  0  0  0  0  0  0  0
  -30.9155    2.1096   26.5611 O   0  0  0  0  0  0  0  0  0  0  0  0
  2  3  1  0
  7 13  1  0
 13 14  1  0
 13 15  2  0
  1  2  2  0
  2  9  1  0
  9  8  2  0
  8  7  1  0
  7  5  2  0
  5  1  1  0
  3  4  2  0
  4  6  1  0
  6 10  2  0
 10 12  1  0
 12 11  2  0
 11  3  1  0
M  END

$$$$
