No_3033-gen_results/8p0m/2024-11-27-11-27-31/
     RDKit          3D

 18 19  0  0  0  0  0  0  0  0999 V2000
  -28.0162   -0.8135   28.8779 C   0  0  0  0  0  0  0  0  0  0  0  0
  -28.4690   -0.7850   29.8287 C   0  0  0  0  0  0  0  0  0  0  0  0
  -26.5042   -0.7777   28.8766 C   0  0  0  0  0  0  0  0  0  0  0  0
  -25.6540   -0.6597   27.7191 C   0  0  0  0  0  0  0  0  0  0  0  0
  -27.9180   -0.9374   31.1824 C   0  0  0  0  0  0  0  0  0  0  0  0
  -26.5423   -0.9399   31.2606 C   0  0  0  0  0  0  0  0  0  0  0  0
  -25.7832   -0.8935   30.1201 C   0  0  0  0  0  0  0  0  0  0  0  0
  -25.8989    0.3149   26.7473 C   0  0  0  0  0  0  0  0  0  0  0  0
  -25.6389    1.5609   26.9737 C   0  0  0  0  0  0  0  0  0  0  0  0
  -24.8886    1.9534   28.1693 C   0  0  0  0  0  0  0  0  0  0  0  0
  -24.6444    3.3652   28.3662 C   0  0  0  0  0  0  0  0  0  0  0  0
  -25.0934    4.2767   27.4021 C   0  0  0  0  0  0  0  0  0  0  0  0
  -25.7085    3.8570   26.2071 C   0  0  0  0  0  0  0  0  0  0  0  0
  -25.9853    2.5164   26.0448 C   0  0  0  0  0  0  0  0  0  0  0  0
  -26.3891   -0.1309   25.4949 C   0  0  0  0  0  0  0  0  0  0  0  0
  -25.9157   -0.3816   24.5661 N   0  0  0  0  0  0  0  0  0  0  0  0
  -27.7981   -0.0844   25.3276 N   0  0  0  0  0  0  0  0  0  0  0  0
  -28.1791   -0.5026   24.1268 C   0  0  0  0  0  0  0  0  0  0  0  0
  3  4  1  0
  4  8  1  0
  8 15  1  0
 15 16  2  0
 15 17  1  0
 17 18  2  0
  8  9  1  0
  9 10  2  0
 10 11  1  0
 11 12  2  0
 12 13  1  0
 13 14  2  0
 14  9  1  0
  1  2  2  0
  2  5  1  0
  5  6  2  0
  6  7  1  0
  7  3  2  0
  3  1  1  0
M  END

$$$$
