No_3831-gen_results/8p0m/2024-11-27-11-27-31/
     RDKit          3D

 15 16  0  0  0  0  0  0  0  0999 V2000
  -28.0162   -0.8135   28.8779 C   0  0  0  0  0  0  0  0  0  0  0  0
  -28.4690   -0.7850   29.8287 C   0  0  0  0  0  0  0  0  0  0  0  0
  -27.0871    0.2903   28.6377 C   0  0  0  0  0  0  0  0  0  0  0  0
  -26.0239    0.3644   29.2526 C   0  0  0  0  0  0  0  0  0  0  0  0
  -26.2460    0.4334   30.7986 C   0  0  0  0  0  0  0  0  0  0  0  0
  -27.7081   -0.6875   31.1981 C   0  0  0  0  0  0  0  0  0  0  0  0
  -26.6631    0.4296   27.0711 C   0  0  0  0  0  0  0  0  0  0  0  0
  -27.3524    0.7274   26.1793 C   0  0  0  0  0  0  0  0  0  0  0  0
  -28.7170    1.0985   26.4286 C   0  0  0  0  0  0  0  0  0  0  0  0
  -29.1149    1.5018   27.5009 C   0  0  0  0  0  0  0  0  0  0  0  0
  -27.9137    1.6237   28.5204 C   0  0  0  0  0  0  0  0  0  0  0  0
  -25.0004    1.4244   29.1437 C   0  0  0  0  0  0  0  0  0  0  0  0
  -23.6507    1.1023   28.7226 C   0  0  0  0  0  0  0  0  0  0  0  0
  -22.9156    0.1830   29.5405 C   0  0  0  0  0  0  0  0  0  0  0  0
  -21.6301   -0.2984   29.1636 C   0  0  0  0  0  0  0  0  0  0  0  0
  1  2  1  0
  1  3  1  0
  3  4  1  0
  4  5  1  0
  2  6  1  0
  5  6  1  0
  3  7  1  0
  8  9  1  0
  3 11  1  0
 10 11  1  0
  4 12  1  0
 12 13  1  0
 13 14  2  3
 14 15  1  0
  7  8  1  0
  9 10  1  0
M  END

$$$$
