No_3142-gen_results/8p0m/2024-11-27-11-27-31/
     RDKit          3D

 13 14  0  0  0  0  0  0  0  0999 V2000
  -28.0162   -0.8135   28.8779 C   0  0  0  0  0  0  0  0  0  0  0  0
  -28.4690   -0.7850   29.8287 C   0  0  0  0  0  0  0  0  0  0  0  0
  -27.1356    0.2359   28.5352 C   0  0  0  0  0  0  0  0  0  0  0  0
  -26.3351    0.2900   27.2835 C   0  0  0  0  0  0  0  0  0  0  0  0
  -28.3692    0.1957   30.9236 C   0  0  0  0  0  0  0  0  0  0  0  0
  -27.5158    1.2655   30.6540 C   0  0  0  0  0  0  0  0  0  0  0  0
  -26.8411    1.2942   29.4761 C   0  0  0  0  0  0  0  0  0  0  0  0
  -25.6774    1.5198   26.9774 C   0  0  0  0  0  0  0  0  0  0  0  0
  -24.6511    1.5543   26.2096 C   0  0  0  0  0  0  0  0  0  0  0  0
  -23.8845    2.8925   26.0981 C   0  0  0  0  0  0  0  0  0  0  0  0
  -24.3714    4.0011   26.8162 C   0  0  0  0  0  0  0  0  0  0  0  0
  -25.5144    3.8796   27.5451 C   0  0  0  0  0  0  0  0  0  0  0  0
  -26.1260    2.6350   27.7528 C   0  0  0  0  0  0  0  0  0  0  0  0
  3  4  1  0
  4  8  1  0
  8  9  2  0
  9 10  1  0
 10 11  2  0
 11 12  1  0
 12 13  2  0
 13  8  1  0
  1  2  2  0
  2  5  1  0
  5  6  2  0
  6  7  1  0
  7  3  2  0
  3  1  1  0
M  END

$$$$
