No_3595-gen_results/8p0m/2024-11-27-11-27-31/
     RDKit          3D

 14 14  0  0  0  0  0  0  0  0999 V2000
  -28.0162   -0.8135   28.8779 C   0  0  0  0  0  0  0  0  0  0  0  0
  -28.4690   -0.7850   29.8287 C   0  0  0  0  0  0  0  0  0  0  0  0
  -27.1356    0.2359   28.5352 C   0  0  0  0  0  0  0  0  0  0  0  0
  -26.8745    1.2825   29.3982 C   0  0  0  0  0  0  0  0  0  0  0  0
  -28.3613    0.1987   30.9244 C   0  0  0  0  0  0  0  0  0  0  0  0
  -27.5277    1.2234   30.6356 C   0  0  0  0  0  0  0  0  0  0  0  0
  -26.3038    0.4601   27.0026 Cl  0  0  0  0  0  0  0  0  0  0  0  0
  -29.4110   -1.9852   30.3113 C   0  0  0  0  0  0  0  0  0  0  0  0
  -30.2922   -1.8258   29.7990 O   0  0  0  0  0  0  0  0  0  0  0  0
  -28.8093   -3.0640   30.7634 O   0  0  0  0  0  0  0  0  0  0  0  0
  -25.9960    2.4275   29.0470 C   0  0  0  0  0  0  0  0  0  0  0  0
  -26.2507    3.5219   29.5628 C   0  0  0  0  0  0  0  0  0  0  0  0
  -25.3818    4.7270   29.1750 C   0  0  0  0  0  0  0  0  0  0  0  0
  -24.6272    4.4957   28.0468 N   0  0  0  0  0  0  0  0  0  0  0  0
  3  7  1  0
  2  8  1  0
  8  9  2  0
  8 10  1  0
  4 11  1  0
 11 12  2  3
 12 13  1  0
 13 14  2  0
  1  2  2  0
  2  5  1  0
  5  6  2  0
  6  4  1  0
  4  3  2  0
  3  1  1  0
M  END

$$$$
