No_314-gen_results/8p0m/2024-11-27-11-27-31/
     RDKit          3D

 23 23  0  0  0  0  0  0  0  0999 V2000
  -28.0162   -0.8135   28.8779 C   0  0  0  0  0  0  0  0  0  0  0  0
  -27.0636   -0.1190   28.6079 C   0  0  0  0  0  0  0  0  0  0  0  0
  -25.8176   -0.3427   29.0488 N   0  0  0  0  0  0  0  0  0  0  0  0
  -24.6757    0.3814   28.7496 C   0  0  0  0  0  0  0  0  0  0  0  0
  -24.7608    1.3095   27.7159 C   0  0  0  0  0  0  0  0  0  0  0  0
  -27.1776    0.9693   27.6449 C   0  0  0  0  0  0  0  0  0  0  0  0
  -23.5364    2.0558   27.3155 C   0  0  0  0  0  0  0  0  0  0  0  0
  -26.0048    1.6907   27.1492 C   0  0  0  0  0  0  0  0  0  0  0  0
  -22.5428    2.0179   28.0938 O   0  0  0  0  0  0  0  0  0  0  0  0
  -23.3917    2.5849   26.0961 N   0  0  0  0  0  0  0  0  0  0  0  0
  -28.1342   -1.3021   29.9301 O   0  0  0  0  0  0  0  0  0  0  0  0
  -29.1575   -0.4177   28.3438 O   0  0  0  0  0  0  0  0  0  0  0  0
  -30.2993   -0.0161   29.1032 C   0  0  0  0  0  0  0  0  0  0  0  0
  -31.1519    0.6504   28.3240 C   0  0  0  0  0  0  0  0  0  0  0  0
  -30.9380    0.9893   27.2618 O   0  0  0  0  0  0  0  0  0  0  0  0
  -32.4205    0.9542   28.8781 N   0  0  0  0  0  0  0  0  0  0  0  0
  -33.4448    1.6623   28.1705 C   0  0  0  0  0  0  0  0  0  0  0  0
  -32.7582    0.6003   30.2833 C   0  0  0  0  0  0  0  0  0  0  0  0
  -33.7934    0.0103   30.4248 C   0  0  0  0  0  0  0  0  0  0  0  0
  -34.0699   -0.4463   31.7428 C   0  0  0  0  0  0  0  0  0  0  0  0
  -35.2748   -1.1725   32.1057 C   0  0  0  0  0  0  0  0  0  0  0  0
  -36.1682   -1.3358   31.0315 C   0  0  0  0  0  0  0  0  0  0  0  0
  -35.9200   -0.8982   29.7745 C   0  0  0  0  0  0  0  0  0  0  0  0
  1  2  1  0
  5  7  1  0
  7  9  2  0
  7 10  1  0
  1 11  2  0
  1 12  1  0
 12 13  1  0
 13 14  1  0
 14 15  2  0
 14 16  1  0
 16 17  1  0
 16 18  1  0
 18 19  2  3
 19 20  1  0
 20 21  2  3
 21 22  1  0
 22 23  2  0
  2  3  2  0
  3  4  1  0
  4  5  2  0
  5  8  1  0
  8  6  2  0
  6  2  1  0
M  END

$$$$
