No_3579-gen_results/8p0m/2024-11-27-11-27-31/
     RDKit          3D

 25 27  0  0  0  0  0  0  0  0999 V2000
  -28.0162   -0.8135   28.8779 C   0  0  0  0  0  0  0  0  0  0  0  0
  -27.0636   -0.1189   28.6079 C   0  0  0  0  0  0  0  0  0  0  0  0
  -25.7647   -0.3897   29.0360 C   0  0  0  0  0  0  0  0  0  0  0  0
  -25.5296   -1.5302   29.9014 C   0  0  0  0  0  0  0  0  0  0  0  0
  -26.6577   -2.2915   30.2035 C   0  0  0  0  0  0  0  0  0  0  0  0
  -27.8548   -1.9555   29.7630 C   0  0  0  0  0  0  0  0  0  0  0  0
  -24.5441    0.4126   28.7379 C   0  0  0  0  0  0  0  0  0  0  0  0
  -24.0952    1.3785   29.5751 C   0  0  0  0  0  0  0  0  0  0  0  0
  -22.9780    2.1448   29.2566 C   0  0  0  0  0  0  0  0  0  0  0  0
  -22.2496    1.9089   28.0531 C   0  0  0  0  0  0  0  0  0  0  0  0
  -23.7843    0.2749   27.5458 C   0  0  0  0  0  0  0  0  0  0  0  0
  -22.7252    0.9953   27.2629 C   0  0  0  0  0  0  0  0  0  0  0  0
  -24.7707    1.6220   30.9072 C   0  0  0  0  0  0  0  0  0  0  0  0
  -25.0156    2.8390   31.3476 N   0  0  0  0  0  0  0  0  0  0  0  0
  -25.7111    3.1203   32.4489 C   0  0  0  0  0  0  0  0  0  0  0  0
  -25.2783    0.6632   31.5090 O   0  0  0  0  0  0  0  0  0  0  0  0
  -25.7257    4.4890   32.8228 C   0  0  0  0  0  0  0  0  0  0  0  0
  -26.3408    5.0228   33.8116 C   0  0  0  0  0  0  0  0  0  0  0  0
  -27.1934    4.1175   34.6116 C   0  0  0  0  0  0  0  0  0  0  0  0
  -27.1979    2.7835   34.2734 C   0  0  0  0  0  0  0  0  0  0  0  0
  -26.4687    2.3026   33.2167 C   0  0  0  0  0  0  0  0  0  0  0  0
  -27.1958    1.0013   27.7548 N   0  0  0  0  0  0  0  0  0  0  0  0
  -27.3677    1.8522   27.1172 C   0  0  0  0  0  0  0  0  0  0  0  0
  -26.7295    2.0181   26.0709 N   0  0  0  0  0  0  0  0  0  0  0  0
  -26.9750    0.4182   26.7598 C   0  0  0  0  0  0  0  0  0  0  0  0
  3  7  1  0
  8 13  1  0
 13 14  1  0
 13 16  2  0
  2 22  1  0
 22 23  1  0
 23 24  2  0
 22 25  1  0
 14 15  1  0
  7  8  1  0
  8  9  2  0
  9 10  1  0
 10 12  2  0
 12 11  1  0
 11  7  2  0
  1  2  2  0
  2  3  1  0
  3  4  2  0
  4  5  1  0
  5  6  2  0
  6  1  1  0
 15 17  2  0
 17 18  1  0
 18 19  2  0
 19 20  1  0
 20 21  2  0
 21 15  1  0
M  END

$$$$
