No_3089-gen_results/8p0m/2024-11-27-11-27-31/
     RDKit          3D

 15 17  0  0  0  0  0  0  0  0999 V2000
  -28.0162   -0.8135   28.8779 C   0  0  0  0  0  0  0  0  0  0  0  0
  -27.0636   -0.1190   28.6079 C   0  0  0  0  0  0  0  0  0  0  0  0
  -26.8756    1.1325   28.9134 C   0  0  0  0  0  0  0  0  0  0  0  0
  -27.9014    1.8066   29.6436 C   0  0  0  0  0  0  0  0  0  0  0  0
  -28.9449    1.0388   30.0360 C   0  0  0  0  0  0  0  0  0  0  0  0
  -29.0273   -0.2890   29.7051 C   0  0  0  0  0  0  0  0  0  0  0  0
  -25.6959    1.9505   28.4764 C   0  0  0  0  0  0  0  0  0  0  0  0
  -25.0886    1.8635   27.5900 C   0  0  0  0  0  0  0  0  0  0  0  0
  -23.8796    2.3891   27.2214 C   0  0  0  0  0  0  0  0  0  0  0  0
  -22.6223    1.9732   27.1591 C   0  0  0  0  0  0  0  0  0  0  0  0
  -22.3248    0.9247   28.0860 C   0  0  0  0  0  0  0  0  0  0  0  0
  -23.1844    0.0264   28.6566 C   0  0  0  0  0  0  0  0  0  0  0  0
  -24.4936    0.3686   28.0757 C   0  0  0  0  0  0  0  0  0  0  0  0
  -25.7424   -0.6527   28.0726 N   0  0  0  0  0  0  0  0  0  0  0  0
  -20.5939    0.5466   28.3014 Cl  0  0  0  0  0  0  0  0  0  0  0  0
 11 15  1  0
  3  7  1  0
  7  8  2  0
 13 14  2  0
 14  2  1  0
  1  2  2  0
  2  3  1  0
  3  4  2  0
  4  5  1  0
  5  6  2  0
  6  1  1  0
  8  9  1  0
  9 10  2  0
 10 11  1  0
 11 12  2  0
 12 13  1  0
 13  8  1  0
M  END

$$$$
