No_3982-gen_results/8p0m/2024-11-27-11-27-31/
     RDKit          3D

 21 22  0  0  0  0  0  0  0  0999 V2000
  -28.1229   -1.3353   28.4874 O   0  0  0  0  0  0  0  0  0  0  0  0
  -27.0637   -0.8242   28.8687 C   0  0  0  0  0  0  0  0  0  0  0  0
  -26.4017   -0.0623   28.6224 C   0  0  0  0  0  0  0  0  0  0  0  0
  -26.2652   -1.8674   29.7609 N   0  0  0  0  0  0  0  0  0  0  0  0
  -25.0436    0.3924   29.0662 C   0  0  0  0  0  0  0  0  0  0  0  0
  -24.4695   -0.5141   30.0040 C   0  0  0  0  0  0  0  0  0  0  0  0
  -25.1312   -1.6601   30.2898 C   0  0  0  0  0  0  0  0  0  0  0  0
  -26.9016    1.1043   27.6572 C   0  0  0  0  0  0  0  0  0  0  0  0
  -27.2252    2.1036   27.9133 C   0  0  0  0  0  0  0  0  0  0  0  0
  -27.0991    2.5962   29.2867 C   0  0  0  0  0  0  0  0  0  0  0  0
  -27.0947    2.1474   30.2305 C   0  0  0  0  0  0  0  0  0  0  0  0
  -27.1780    2.5748   31.5009 C   0  0  0  0  0  0  0  0  0  0  0  0
  -27.0955    4.0092   31.7019 C   0  0  0  0  0  0  0  0  0  0  0  0
  -27.0469    4.7852   30.5143 C   0  0  0  0  0  0  0  0  0  0  0  0
  -27.0671    4.1891   29.2983 C   0  0  0  0  0  0  0  0  0  0  0  0
  -27.0436   -3.1253   30.0892 C   0  0  0  0  0  0  0  0  0  0  0  0
  -27.0230    0.4455   26.2742 C   0  0  0  0  0  0  0  0  0  0  0  0
  -25.8510    0.2312   25.5547 C   0  0  0  0  0  0  0  0  0  0  0  0
  -28.2311    0.2797   25.6367 C   0  0  0  0  0  0  0  0  0  0  0  0
  -29.4632    0.6092   26.1823 C   0  0  0  0  0  0  0  0  0  0  0  0
  -30.4333    0.6127   25.6452 C   0  0  0  0  0  0  0  0  0  0  0  0
  1  2  2  0
  2  3  1  0
  2  4  1  0
  3  5  1  0
  4  7  1  0
  6  7  1  0
  3  8  1  0
  8  9  1  0
  9 10  1  0
  4 16  1  0
  8 17  1  0
 17 18  1  0
 17 19  1  0
 19 20  1  0
 20 21  2  0
  5  6  1  0
 10 11  2  0
 11 12  1  0
 12 13  2  0
 13 14  1  0
 14 15  2  0
 15 10  1  0
M  END

$$$$
