No_3513-gen_results/8p0m/2024-11-27-11-27-31/
     RDKit          3D

 25 29  0  0  0  0  0  0  0  0999 V2000
  -28.0162   -0.8135   28.8779 C   0  0  0  0  0  0  0  0  0  0  0  0
  -27.0636   -0.1189   28.6079 C   0  0  0  0  0  0  0  0  0  0  0  0
  -25.7647   -0.3897   29.0360 C   0  0  0  0  0  0  0  0  0  0  0  0
  -25.5296   -1.5302   29.9014 C   0  0  0  0  0  0  0  0  0  0  0  0
  -26.6577   -2.2915   30.2035 C   0  0  0  0  0  0  0  0  0  0  0  0
  -27.8548   -1.9555   29.7630 C   0  0  0  0  0  0  0  0  0  0  0  0
  -24.5441    0.4126   28.7379 C   0  0  0  0  0  0  0  0  0  0  0  0
  -24.4731    1.2065   27.7114 C   0  0  0  0  0  0  0  0  0  0  0  0
  -23.2632    1.9110   27.3928 C   0  0  0  0  0  0  0  0  0  0  0  0
  -22.0960    1.7116   28.0459 C   0  0  0  0  0  0  0  0  0  0  0  0
  -23.3012    0.1559   29.4817 C   0  0  0  0  0  0  0  0  0  0  0  0
  -22.1018    0.8312   29.1085 C   0  0  0  0  0  0  0  0  0  0  0  0
  -28.9034   -2.7179   30.0874 F   0  0  0  0  0  0  0  0  0  0  0  0
  -23.3166    2.7900   26.3345 O   0  0  0  0  0  0  0  0  0  0  0  0
  -24.5558    2.7960   25.7238 C   0  0  0  0  0  0  0  0  0  0  0  0
  -25.5266    1.5370   26.8927 C   0  0  0  0  0  0  0  0  0  0  0  0
  -25.2687    1.8396   25.4866 C   0  0  0  0  0  0  0  0  0  0  0  0
  -26.5470    0.3139   26.8734 C   0  0  0  0  0  0  0  0  0  0  0  0
  -26.3727    2.7211   27.5930 C   0  0  0  0  0  0  0  0  0  0  0  0
  -25.9432    3.2899   28.4677 C   0  0  0  0  0  0  0  0  0  0  0  0
  -26.6361    4.4594   29.1765 C   0  0  0  0  0  0  0  0  0  0  0  0
  -27.7343    4.8268   28.7119 C   0  0  0  0  0  0  0  0  0  0  0  0
  -28.3219    4.1296   27.6108 C   0  0  0  0  0  0  0  0  0  0  0  0
  -27.6393    3.0980   27.0172 C   0  0  0  0  0  0  0  0  0  0  0  0
  -27.1555   -0.1608   26.0151 O   0  0  0  0  0  0  0  0  0  0  0  0
  3  7  1  0
  6 13  1  0
  9 14  1  0
 14 15  1  0
  8 16  1  0
 15 17  1  0
 16 17  1  0
  2 18  1  0
 16 18  1  0
 16 19  1  0
 18 25  2  0
  1  2  2  0
  2  3  1  0
  3  4  2  0
  4  5  1  0
  5  6  2  0
  6  1  1  0
  7 11  2  0
 11 12  1  0
 12 10  2  0
 10  9  1  0
  9  8  2  0
  8  7  1  0
 19 20  2  0
 20 21  1  0
 21 22  2  0
 22 23  1  0
 23 24  2  0
 24 19  1  0
M  END

$$$$
