No_3992-gen_results/8p0m/2024-11-27-11-27-31/
     RDKit          3D

 31 34  0  0  0  0  0  0  0  0999 V2000
  -28.0162   -0.8135   28.8779 C   0  0  0  0  0  0  0  0  0  0  0  0
  -28.4690   -0.7850   29.8287 C   0  0  0  0  0  0  0  0  0  0  0  0
  -28.1816    0.4277   28.1134 C   0  0  0  0  0  0  0  0  0  0  0  0
  -28.9841    1.4155   28.5154 C   0  0  0  0  0  0  0  0  0  0  0  0
  -28.3375   -2.0481   30.7873 C   0  0  0  0  0  0  0  0  0  0  0  0
  -29.5615    1.2930   29.7416 C   0  0  0  0  0  0  0  0  0  0  0  0
  -29.3196    0.1647   30.4451 C   0  0  0  0  0  0  0  0  0  0  0  0
  -27.3512   -2.1149   31.3659 O   0  0  0  0  0  0  0  0  0  0  0  0
  -29.4094   -2.7706   31.0107 O   0  0  0  0  0  0  0  0  0  0  0  0
  -27.4315    0.5025   26.7557 C   0  0  0  0  0  0  0  0  0  0  0  0
  -27.9694    0.9736   25.6581 C   0  0  0  0  0  0  0  0  0  0  0  0
  -26.0611    0.0742   26.7027 C   0  0  0  0  0  0  0  0  0  0  0  0
  -25.1987   -0.0896   27.8435 C   0  0  0  0  0  0  0  0  0  0  0  0
  -23.9321    0.1104   27.9551 C   0  0  0  0  0  0  0  0  0  0  0  0
  -23.1946   -0.2238   29.0797 C   0  0  0  0  0  0  0  0  0  0  0  0
  -21.8297    0.1833   29.2005 C   0  0  0  0  0  0  0  0  0  0  0  0
  -21.2232    0.9600   28.2036 C   0  0  0  0  0  0  0  0  0  0  0  0
  -22.0477    1.5073   27.1851 C   0  0  0  0  0  0  0  0  0  0  0  0
  -23.3588    1.1922   27.1347 C   0  0  0  0  0  0  0  0  0  0  0  0
  -28.1560    2.2243   25.5865 C   0  0  0  0  0  0  0  0  0  0  0  0
  -28.8236    0.1245   24.9149 C   0  0  0  0  0  0  0  0  0  0  0  0
  -27.3979    3.2632   26.3310 C   0  0  0  0  0  0  0  0  0  0  0  0
  -25.4897   -0.2404   25.4594 C   0  0  0  0  0  0  0  0  0  0  0  0
  -29.6825    0.6521   23.9656 C   0  0  0  0  0  0  0  0  0  0  0  0
  -29.6947    1.9734   23.6955 C   0  0  0  0  0  0  0  0  0  0  0  0
  -28.9359    2.8662   24.4603 C   0  0  0  0  0  0  0  0  0  0  0  0
  -28.0218    4.2645   27.0247 C   0  0  0  0  0  0  0  0  0  0  0  0
  -27.2957    5.1114   27.7812 C   0  0  0  0  0  0  0  0  0  0  0  0
  -25.8907    4.9227   27.9384 C   0  0  0  0  0  0  0  0  0  0  0  0
  -25.2329    3.9154   27.2342 C   0  0  0  0  0  0  0  0  0  0  0  0
  -26.0068    3.0649   26.4464 C   0  0  0  0  0  0  0  0  0  0  0  0
  2  5  1  0
  5  8  2  0
  5  9  1  0
  3 10  1  0
 10 11  1  0
 10 12  1  0
 12 13  1  0
 20 22  1  0
 12 23  1  0
 13 14  1  0
 11 20  2  0
 20 26  1  0
 26 25  2  0
 25 24  1  0
 24 21  2  0
 21 11  1  0
 14 15  2  0
 15 16  1  0
 16 17  2  0
 17 18  1  0
 18 19  2  0
 19 14  1  0
 22 27  2  0
 27 28  1  0
 28 29  2  0
 29 30  1  0
 30 31  2  0
 31 22  1  0
  1  2  2  0
  2  7  1  0
  7  6  2  0
  6  4  1  0
  4  3  2  0
  3  1  1  0
M  END

$$$$
