No_3860-gen_results/8p0m/2024-11-27-11-27-31/
     RDKit          3D

 17 18  0  0  0  0  0  0  0  0999 V2000
  -28.0162   -0.8135   28.8779 C   0  0  0  0  0  0  0  0  0  0  0  0
  -27.0636   -0.1190   28.6079 C   0  0  0  0  0  0  0  0  0  0  0  0
  -25.7647   -0.3897   29.0360 C   0  0  0  0  0  0  0  0  0  0  0  0
  -25.5296   -1.5302   29.9014 C   0  0  0  0  0  0  0  0  0  0  0  0
  -26.6577   -2.2915   30.2035 C   0  0  0  0  0  0  0  0  0  0  0  0
  -27.8548   -1.9555   29.7630 C   0  0  0  0  0  0  0  0  0  0  0  0
  -24.5441    0.4126   28.7379 C   0  0  0  0  0  0  0  0  0  0  0  0
  -24.0952    1.3785   29.5751 C   0  0  0  0  0  0  0  0  0  0  0  0
  -24.8267    1.7349   30.7325 C   0  0  0  0  0  0  0  0  0  0  0  0
  -25.3621    2.6561   31.0987 C   0  0  0  0  0  0  0  0  0  0  0  0
  -26.0407    3.4724   31.6263 C   0  0  0  0  0  0  0  0  0  0  0  0
  -26.2545    3.2838   33.0435 C   0  0  0  0  0  0  0  0  0  0  0  0
  -26.9724    4.2595   33.9077 C   0  0  0  0  0  0  0  0  0  0  0  0
  -27.4239    5.3842   33.2225 C   0  0  0  0  0  0  0  0  0  0  0  0
  -27.1980    5.5903   31.8771 C   0  0  0  0  0  0  0  0  0  0  0  0
  -26.4700    4.7123   31.1463 C   0  0  0  0  0  0  0  0  0  0  0  0
  -27.2342    1.3019   27.5914 Cl  0  0  0  0  0  0  0  0  0  0  0  0
  3  7  1  0
  7  8  2  3
  8  9  1  0
  9 10  2  3
 10 11  1  0
  2 17  1  0
 11 12  2  0
 12 13  1  0
 13 14  2  0
 14 15  1  0
 15 16  2  0
 16 11  1  0
  1  2  2  0
  2  3  1  0
  3  4  2  0
  4  5  1  0
  5  6  2  0
  6  1  1  0
M  END

$$$$
