No_3418-gen_results/8p0m/2024-11-27-11-27-31/
     RDKit          3D

 22 23  0  0  0  0  0  0  0  0999 V2000
  -28.0162   -0.8135   28.8779 C   0  0  0  0  0  0  0  0  0  0  0  0
  -27.0636   -0.1190   28.6079 C   0  0  0  0  0  0  0  0  0  0  0  0
  -27.0425    0.2440   27.4277 F   0  0  0  0  0  0  0  0  0  0  0  0
  -27.6481   -1.9251   29.5748 F   0  0  0  0  0  0  0  0  0  0  0  0
  -29.0434   -0.1276   29.7843 C   0  0  0  0  0  0  0  0  0  0  0  0
  -30.2615   -0.6536   29.9265 C   0  0  0  0  0  0  0  0  0  0  0  0
  -25.7973   -0.8243   28.7138 F   0  0  0  0  0  0  0  0  0  0  0  0
  -26.6557    1.0036   29.3401 F   0  0  0  0  0  0  0  0  0  0  0  0
  -31.2023    0.0530   29.4491 C   0  0  0  0  0  0  0  0  0  0  0  0
  -32.2733   -0.3431   28.9451 C   0  0  0  0  0  0  0  0  0  0  0  0
  -33.3501    0.4592   28.3456 C   0  0  0  0  0  0  0  0  0  0  0  0
  -33.1398    1.8402   28.3743 C   0  0  0  0  0  0  0  0  0  0  0  0
  -31.9853    2.3582   28.9031 C   0  0  0  0  0  0  0  0  0  0  0  0
  -31.0236    1.5487   29.3994 C   0  0  0  0  0  0  0  0  0  0  0  0
  -29.7566    2.1098   29.8212 C   0  0  0  0  0  0  0  0  0  0  0  0
  -28.9517    1.3425   29.3680 C   0  0  0  0  0  0  0  0  0  0  0  0
  -28.3544    0.0015   31.2808 C   0  0  0  0  0  0  0  0  0  0  0  0
  -28.2735   -1.1219   31.9683 C   0  0  0  0  0  0  0  0  0  0  0  0
  -27.9047   -0.9523   33.1892 O   0  0  0  0  0  0  0  0  0  0  0  0
  -32.6243   -1.8262   28.8856 C   0  0  0  0  0  0  0  0  0  0  0  0
  -32.6714   -2.4175   27.8986 O   0  0  0  0  0  0  0  0  0  0  0  0
  -32.2907   -2.5122   30.0769 O   0  0  0  0  0  0  0  0  0  0  0  0
  1  2  1  0
  2  3  1  0
  1  4  1  0
  1  5  1  0
  5  6  1  0
  2  7  1  0
  2  8  1  0
  6  9  1  0
 14 15  1  0
  5 16  1  0
 15 16  1  0
  5 17  1  0
 17 18  1  0
 18 19  2  0
 10 20  1  0
 20 21  2  0
 20 22  1  0
  9 10  2  0
 10 11  1  0
 11 12  2  0
 12 13  1  0
 13 14  2  0
 14  9  1  0
M  END

$$$$
