No_3442-gen_results/8p0m/2024-11-27-11-27-31/
     RDKit          3D

 21 22  0  0  0  0  0  0  0  0999 V2000
  -28.0162   -0.8135   28.8779 C   0  0  0  0  0  0  0  0  0  0  0  0
  -28.4690   -0.7850   29.8287 C   0  0  0  0  0  0  0  0  0  0  0  0
  -28.1960    0.3478   28.0550 C   0  0  0  0  0  0  0  0  0  0  0  0
  -29.0191    1.3501   28.3782 C   0  0  0  0  0  0  0  0  0  0  0  0
  -29.6249    1.2683   29.6012 C   0  0  0  0  0  0  0  0  0  0  0  0
  -28.2861   -2.0249   30.8303 C   0  0  0  0  0  0  0  0  0  0  0  0
  -29.3773    0.1888   30.3806 C   0  0  0  0  0  0  0  0  0  0  0  0
  -28.6488   -3.1000   30.6206 N   0  0  0  0  0  0  0  0  0  0  0  0
  -29.6014   -3.7447   31.2333 C   0  0  0  0  0  0  0  0  0  0  0  0
  -29.9615   -3.4686   32.2342 F   0  0  0  0  0  0  0  0  0  0  0  0
  -29.3962   -5.1488   31.1068 O   0  0  0  0  0  0  0  0  0  0  0  0
  -27.4500    0.3444   26.6943 C   0  0  0  0  0  0  0  0  0  0  0  0
  -28.0128    0.4532   25.5055 C   0  0  0  0  0  0  0  0  0  0  0  0
  -25.9893    0.2151   26.7203 C   0  0  0  0  0  0  0  0  0  0  0  0
  -25.2476   -0.0378   27.8898 C   0  0  0  0  0  0  0  0  0  0  0  0
  -23.9724    0.3429   28.0766 C   0  0  0  0  0  0  0  0  0  0  0  0
  -23.3253    1.1353   27.0641 C   0  0  0  0  0  0  0  0  0  0  0  0
  -24.0754    1.4695   25.8985 C   0  0  0  0  0  0  0  0  0  0  0  0
  -25.3712    1.1191   25.7552 C   0  0  0  0  0  0  0  0  0  0  0  0
  -28.8072    1.0337   25.2459 O   0  0  0  0  0  0  0  0  0  0  0  0
  -27.5919   -0.4363   24.6104 O   0  0  0  0  0  0  0  0  0  0  0  0
  2  6  1  0
  6  8  1  0
  8  9  1  0
  9 10  1  0
  9 11  2  0
  3 12  1  0
 12 13  1  0
 12 14  1  0
 13 20  2  0
 13 21  1  0
  1  2  2  0
  2  7  1  0
  7  5  2  0
  5  4  1  0
  4  3  2  0
  3  1  1  0
 14 15  2  0
 15 16  1  0
 16 17  2  0
 17 18  1  0
 18 19  2  0
 19 14  1  0
M  END

$$$$
