No_3489-gen_results/8p0m/2024-11-27-11-27-31/
     RDKit          3D

 26 27  0  0  0  0  0  0  0  0999 V2000
  -28.0162   -0.8135   28.8779 C   0  0  0  0  0  0  0  0  0  0  0  0
  -27.0636   -0.1189   28.6079 C   0  0  0  0  0  0  0  0  0  0  0  0
  -26.9287    1.1713   29.0083 C   0  0  0  0  0  0  0  0  0  0  0  0
  -25.7702    2.0341   28.6884 C   0  0  0  0  0  0  0  0  0  0  0  0
  -24.7141    1.4431   27.9188 C   0  0  0  0  0  0  0  0  0  0  0  0
  -24.8590    0.0783   27.5836 C   0  0  0  0  0  0  0  0  0  0  0  0
  -25.9647   -0.6606   27.9164 C   0  0  0  0  0  0  0  0  0  0  0  0
  -27.9820   -1.6112   30.1028 N   0  0  0  0  0  0  0  0  0  0  0  0
  -23.5351    2.1704   27.5550 C   0  0  0  0  0  0  0  0  0  0  0  0
  -23.4709    2.9034   26.7728 F   0  0  0  0  0  0  0  0  0  0  0  0
  -22.4746    1.1447   27.2578 F   0  0  0  0  0  0  0  0  0  0  0  0
  -22.9101    2.6208   28.7683 F   0  0  0  0  0  0  0  0  0  0  0  0
  -29.2118   -0.3747   28.6958 O   0  0  0  0  0  0  0  0  0  0  0  0
  -26.7462   -2.1047   30.6603 C   0  0  0  0  0  0  0  0  0  0  0  0
  -29.1293   -2.3184   30.6067 C   0  0  0  0  0  0  0  0  0  0  0  0
  -29.4403   -1.9275   31.9284 C   0  0  0  0  0  0  0  0  0  0  0  0
  -29.8638   -2.5146   32.7466 C   0  0  0  0  0  0  0  0  0  0  0  0
  -30.2089   -2.3348   33.7380 C   0  0  0  0  0  0  0  0  0  0  0  0
  -29.9623   -0.9757   34.3639 C   0  0  0  0  0  0  0  0  0  0  0  0
  -29.1203   -0.5349   32.3621 C   0  0  0  0  0  0  0  0  0  0  0  0
  -29.3110   -0.0600   33.3202 C   0  0  0  0  0  0  0  0  0  0  0  0
  -29.7033   -3.0812   29.9433 O   0  0  0  0  0  0  0  0  0  0  0  0
  -29.0105    1.5326   33.9473 Cl  0  0  0  0  0  0  0  0  0  0  0  0
  -25.7020   -1.1747   30.8688 C   0  0  0  0  0  0  0  0  0  0  0  0
  -24.7035   -1.0586   30.9515 C   0  0  0  0  0  0  0  0  0  0  0  0
  -23.8362    0.0356   31.3961 C   0  0  0  0  0  0  0  0  0  0  0  0
  1  2  1  0
  1  8  1  0
  5  9  1  0
  9 10  1  0
  9 11  1  0
  9 12  1  0
  1 13  2  0
  8 14  1  0
  8 15  1  0
 15 16  1  0
 15 22  2  0
 21 23  1  0
 14 24  1  0
 24 25  3  0
 25 26  1  0
  2  3  2  0
  3  4  1  0
  4  5  2  0
  5  6  1  0
  6  7  2  0
  7  2  1  0
 16 17  2  0
 17 18  1  0
 18 19  2  0
 19 21  1  0
 21 20  2  0
 20 16  1  0
M  END

$$$$
