No_3681-gen_results/8p0m/2024-11-27-11-27-31/
     RDKit          3D

 35 38  0  0  0  0  0  0  0  0999 V2000
  -28.0162   -0.8135   28.8779 C   0  0  0  0  0  0  0  0  0  0  0  0
  -27.0636   -0.1189   28.6079 C   0  0  0  0  0  0  0  0  0  0  0  0
  -25.8176   -0.3427   29.0487 N   0  0  0  0  0  0  0  0  0  0  0  0
  -25.6067   -1.4414   29.8929 C   0  0  0  0  0  0  0  0  0  0  0  0
  -26.6760   -2.2193   30.2363 C   0  0  0  0  0  0  0  0  0  0  0  0
  -27.8635   -1.9317   29.7671 C   0  0  0  0  0  0  0  0  0  0  0  0
  -27.1286    1.0356   27.8135 N   0  0  0  0  0  0  0  0  0  0  0  0
  -26.1342    1.9036   27.7281 C   0  0  0  0  0  0  0  0  0  0  0  0
  -25.4369    2.2886   26.9358 C   0  0  0  0  0  0  0  0  0  0  0  0
  -24.2527    3.2463   27.0271 C   0  0  0  0  0  0  0  0  0  0  0  0
  -25.7074    2.5718   29.0993 C   0  0  0  0  0  0  0  0  0  0  0  0
  -24.7417    3.5090   29.2497 C   0  0  0  0  0  0  0  0  0  0  0  0
  -23.9944    3.8435   28.1570 C   0  0  0  0  0  0  0  0  0  0  0  0
  -28.1792    1.1916   26.8955 C   0  0  0  0  0  0  0  0  0  0  0  0
  -29.1541    1.9036   27.2867 C   0  0  0  0  0  0  0  0  0  0  0  0
  -28.1127    0.5973   25.6564 C   0  0  0  0  0  0  0  0  0  0  0  0
  -26.9114    0.0001   25.0747 C   0  0  0  0  0  0  0  0  0  0  0  0
  -29.1100    0.6943   24.7020 C   0  0  0  0  0  0  0  0  0  0  0  0
  -30.4146    1.8402   26.7175 C   0  0  0  0  0  0  0  0  0  0  0  0
  -31.5822    2.5422   27.1591 C   0  0  0  0  0  0  0  0  0  0  0  0
  -30.4416    1.2196   25.3587 C   0  0  0  0  0  0  0  0  0  0  0  0
  -29.0403   -2.7617   30.1921 C   0  0  0  0  0  0  0  0  0  0  0  0
  -28.8931   -3.9887   30.3374 O   0  0  0  0  0  0  0  0  0  0  0  0
  -30.1798   -2.2751   30.3983 O   0  0  0  0  0  0  0  0  0  0  0  0
  -31.8803    2.6152   28.1314 O   0  0  0  0  0  0  0  0  0  0  0  0
  -32.0791    3.3297   26.2460 O   0  0  0  0  0  0  0  0  0  0  0  0
  -29.2437    0.0794   23.5255 C   0  0  0  0  0  0  0  0  0  0  0  0
  -24.3191   -1.7271   30.2955 N   0  0  0  0  0  0  0  0  0  0  0  0
  -23.6270   -0.8275   31.1137 C   0  0  0  0  0  0  0  0  0  0  0  0
  -22.2227   -0.8491   31.0127 C   0  0  0  0  0  0  0  0  0  0  0  0
  -24.2972   -0.0761   32.1171 C   0  0  0  0  0  0  0  0  0  0  0  0
  -26.9593   -0.7761   24.1102 N   0  0  0  0  0  0  0  0  0  0  0  0
  -28.1332   -0.7328   23.3245 C   0  0  0  0  0  0  0  0  0  0  0  0
  -25.1841    0.5682   32.3032 C   0  0  0  0  0  0  0  0  0  0  0  0
  -25.8277    1.3392   33.3966 C   0  0  0  0  0  0  0  0  0  0  0  0
  2  7  1  0
  7  8  1  0
  7 14  1  0
 19 20  1  0
  6 22  1  0
 22 23  2  0
 22 24  1  0
 20 25  1  0
 20 26  2  0
  4 28  1  0
 28 29  1  0
 29 30  2  0
 29 31  1  0
 31 34  2  3
 34 35  1  0
  1  2  2  0
  2  3  1  0
  3  4  2  0
  4  5  1  0
  5  6  2  0
  6  1  1  0
  8  9  2  0
  9 10  1  0
 10 13  2  0
 13 12  1  0
 12 11  2  0
 11  8  1  0
 16 17  2  0
 17 32  1  0
 32 33  2  0
 33 27  1  0
 27 18  2  0
 14 15  2  0
 15 19  1  0
 19 21  2  0
 21 18  1  0
 18 16  1  0
 16 14  1  0
M  END

$$$$
