No_3378-gen_results/8p0m/2024-11-27-11-27-31/
     RDKit          3D

 14 13  0  0  0  0  0  0  0  0999 V2000
  -28.0162   -0.8135   28.8779 C   0  0  0  0  0  0  0  0  0  0  0  0
  -28.4690   -0.7850   29.8287 C   0  0  0  0  0  0  0  0  0  0  0  0
  -28.1816    0.4277   28.1134 C   0  0  0  0  0  0  0  0  0  0  0  0
  -27.4498    0.6435   26.8500 C   0  0  0  0  0  0  0  0  0  0  0  0
  -26.1815    0.0357   26.7145 C   0  0  0  0  0  0  0  0  0  0  0  0
  -25.7800   -0.9326   27.6938 C   0  0  0  0  0  0  0  0  0  0  0  0
  -26.5568   -1.2134   28.7413 C   0  0  0  0  0  0  0  0  0  0  0  0
  -25.9192   -2.2826   29.5218 C   0  0  0  0  0  0  0  0  0  0  0  0
  -26.2754   -1.4467   29.6951 F   0  0  0  0  0  0  0  0  0  0  0  0
  -28.7719   -1.6168   28.2405 F   0  0  0  0  0  0  0  0  0  0  0  0
  -26.4770   -3.2511   30.1804 O   0  0  0  0  0  0  0  0  0  0  0  0
  -24.6356   -2.8249   29.0546 C   0  0  0  0  0  0  0  0  0  0  0  0
  -28.1226    0.1518   30.6809 F   0  0  0  0  0  0  0  0  0  0  0  0
  -29.5028   -1.4893   30.3210 F   0  0  0  0  0  0  0  0  0  0  0  0
  1  2  1  0
  1  3  2  3
  3  4  1  0
  4  5  2  3
  5  6  1  0
  6  7  2  3
  7  8  1  0
  7  9  1  0
  1 10  1  0
  8 11  2  0
  8 12  1  0
  2 13  1  0
  2 14  1  0
M  END

$$$$
