No_3236-gen_results/8p0m/2024-11-27-11-27-31/
     RDKit          3D

 35 38  0  0  0  0  0  0  0  0999 V2000
  -28.0162   -0.8135   28.8779 C   0  0  0  0  0  0  0  0  0  0  0  0
  -27.0636   -0.1189   28.6079 C   0  0  0  0  0  0  0  0  0  0  0  0
  -25.7647   -0.3897   29.0360 C   0  0  0  0  0  0  0  0  0  0  0  0
  -24.5517    0.4058   28.7646 C   0  0  0  0  0  0  0  0  0  0  0  0
  -24.6957    1.4480   27.7988 C   0  0  0  0  0  0  0  0  0  0  0  0
  -23.5821    2.2166   27.4626 C   0  0  0  0  0  0  0  0  0  0  0  0
  -22.3295    1.8428   27.9661 C   0  0  0  0  0  0  0  0  0  0  0  0
  -22.1809    0.8284   28.8814 C   0  0  0  0  0  0  0  0  0  0  0  0
  -23.3190    0.0774   29.2471 C   0  0  0  0  0  0  0  0  0  0  0  0
  -27.8976   -1.8938   29.8574 C   0  0  0  0  0  0  0  0  0  0  0  0
  -26.6550   -2.3404   30.2745 C   0  0  0  0  0  0  0  0  0  0  0  0
  -25.5323   -1.5588   29.9128 C   0  0  0  0  0  0  0  0  0  0  0  0
  -29.0612   -2.7220   30.2437 C   0  0  0  0  0  0  0  0  0  0  0  0
  -30.1481   -2.2622   30.2231 O   0  0  0  0  0  0  0  0  0  0  0  0
  -28.8325   -3.9722   30.7407 N   0  0  0  0  0  0  0  0  0  0  0  0
  -29.9053   -4.8916   31.0939 C   0  0  0  0  0  0  0  0  0  0  0  0
  -30.7254   -5.2756   30.0857 C   0  0  0  0  0  0  0  0  0  0  0  0
  -31.4530   -6.4004   30.2767 C   0  0  0  0  0  0  0  0  0  0  0  0
  -32.2702   -6.9054   29.1622 C   0  0  0  0  0  0  0  0  0  0  0  0
  -32.2149   -6.2360   27.8980 C   0  0  0  0  0  0  0  0  0  0  0  0
  -31.3415   -5.1598   27.7438 C   0  0  0  0  0  0  0  0  0  0  0  0
  -30.5750   -4.7108   28.7683 C   0  0  0  0  0  0  0  0  0  0  0  0
  -29.9285   -5.2421   32.3041 O   0  0  0  0  0  0  0  0  0  0  0  0
  -33.3750   -6.9530   26.6633 Br  0  0  0  0  0  0  0  0  0  0  0  0
  -23.6875    3.1854   26.5491 O   0  0  0  0  0  0  0  0  0  0  0  0
  -24.9882    3.8372   26.5323 C   0  0  0  0  0  0  0  0  0  0  0  0
  -25.1666    4.8120   27.4965 C   0  0  0  0  0  0  0  0  0  0  0  0
  -26.3818    5.3953   27.7253 C   0  0  0  0  0  0  0  0  0  0  0  0
  -27.4206    4.9769   26.8748 C   0  0  0  0  0  0  0  0  0  0  0  0
  -27.2596    3.9573   25.9425 C   0  0  0  0  0  0  0  0  0  0  0  0
  -26.0149    3.3857   25.8074 C   0  0  0  0  0  0  0  0  0  0  0  0
  -26.5681    6.5017   28.6428 C   0  0  0  0  0  0  0  0  0  0  0  0
  -26.0392    7.4040   28.8328 C   0  0  0  0  0  0  0  0  0  0  0  0
  -24.7640    7.8355   28.0371 C   0  0  0  0  0  0  0  0  0  0  0  0
  -24.1401    8.8611   28.3263 C   0  0  0  0  0  0  0  0  0  0  0  0
  3  4  1  0
 10 13  1  0
 13 14  2  0
 13 15  1  0
 15 16  1  0
 16 17  1  0
 16 23  2  0
 20 24  1  0
  6 25  1  0
 25 26  1  0
 28 32  1  0
 32 33  2  3
 33 34  1  0
 34 35  2  0
 17 18  2  0
 18 19  1  0
 19 20  2  0
 20 21  1  0
 21 22  2  0
 22 17  1  0
 26 27  2  0
 27 28  1  0
 28 29  2  0
 29 30  1  0
 30 31  2  0
 31 26  1  0
  1  2  2  0
  2  3  1  0
  3 12  2  0
 12 11  1  0
 11 10  2  0
 10  1  1  0
  4  5  2  0
  5  6  1  0
  6  7  2  0
  7  8  1  0
  8  9  2  0
  9  4  1  0
M  END

$$$$
