No_3333-gen_results/8p0m/2024-11-27-11-27-31/
     RDKit          3D

 11 12  0  0  0  0  0  0  0  0999 V2000
  -28.1229   -1.3353   28.4874 O   0  0  0  0  0  0  0  0  0  0  0  0
  -27.4806   -0.4044   28.7094 C   0  0  0  0  0  0  0  0  0  0  0  0
  -26.3804   -0.0867   27.9394 C   0  0  0  0  0  0  0  0  0  0  0  0
  -27.4232    0.1749   30.0549 N   0  0  0  0  0  0  0  0  0  0  0  0
  -25.4065    0.7421   28.2860 C   0  0  0  0  0  0  0  0  0  0  0  0
  -24.3010    1.1589   27.4854 C   0  0  0  0  0  0  0  0  0  0  0  0
  -23.2507    1.9038   28.0519 C   0  0  0  0  0  0  0  0  0  0  0  0
  -23.2204    1.9881   29.4561 C   0  0  0  0  0  0  0  0  0  0  0  0
  -24.2137    1.4699   30.2937 C   0  0  0  0  0  0  0  0  0  0  0  0
  -25.2194    0.7935   29.7100 C   0  0  0  0  0  0  0  0  0  0  0  0
  -26.2792    0.7450   30.5073 C   0  0  0  0  0  0  0  0  0  0  0  0
  1  2  2  0
  2  3  1  0
  2  4  1  0
  3  5  1  0
 10 11  1  0
 11  4  1  0
  5  6  2  0
  6  7  1  0
  7  8  2  0
  8  9  1  0
  9 10  2  0
 10  5  1  0
M  END

$$$$
