No_3672-gen_results/8p0m/2024-11-27-11-27-31/
     RDKit          3D

 25 26  0  0  0  0  0  0  0  0999 V2000
  -28.0162   -0.8135   28.8779 C   0  0  0  0  0  0  0  0  0  0  0  0
  -27.0636   -0.1190   28.6079 C   0  0  0  0  0  0  0  0  0  0  0  0
  -25.7923   -0.4302   29.0761 C   0  0  0  0  0  0  0  0  0  0  0  0
  -25.5756   -1.5654   29.9363 C   0  0  0  0  0  0  0  0  0  0  0  0
  -26.7354   -2.3004   30.2173 C   0  0  0  0  0  0  0  0  0  0  0  0
  -27.9184   -1.9537   29.7629 C   0  0  0  0  0  0  0  0  0  0  0  0
  -27.1569    1.4255   27.5348 Br  0  0  0  0  0  0  0  0  0  0  0  0
  -29.0672   -2.7901   30.1831 C   0  0  0  0  0  0  0  0  0  0  0  0
  -30.1932   -2.3067   30.1791 N   0  0  0  0  0  0  0  0  0  0  0  0
  -28.8492   -3.8404   30.8985 O   0  0  0  0  0  0  0  0  0  0  0  0
  -31.4203   -3.0253   30.5640 C   0  0  0  0  0  0  0  0  0  0  0  0
  -32.3889   -2.5496   30.6873 C   0  0  0  0  0  0  0  0  0  0  0  0
  -33.0996   -2.0476   30.0628 C   0  0  0  0  0  0  0  0  0  0  0  0
  -34.4400   -1.3337   30.2999 C   0  0  0  0  0  0  0  0  0  0  0  0
  -34.8451   -1.4413   31.6164 C   0  0  0  0  0  0  0  0  0  0  0  0
  -34.1437   -2.0877   32.5355 C   0  0  0  0  0  0  0  0  0  0  0  0
  -32.8893   -2.6376   32.2146 C   0  0  0  0  0  0  0  0  0  0  0  0
  -34.5957   -2.1889   33.9516 C   0  0  0  0  0  0  0  0  0  0  0  0
  -34.2415   -1.4023   34.7311 O   0  0  0  0  0  0  0  0  0  0  0  0
  -35.5984   -3.0163   34.0938 O   0  0  0  0  0  0  0  0  0  0  0  0
  -31.2101   -4.3208   30.5706 O   0  0  0  0  0  0  0  0  0  0  0  0
  -24.5170    0.3346   28.7010 C   0  0  0  0  0  0  0  0  0  0  0  0
  -24.2930    1.0784   27.7481 C   0  0  0  0  0  0  0  0  0  0  0  0
  -22.9580    1.6580   27.6918 C   0  0  0  0  0  0  0  0  0  0  0  0
  -21.9488    1.1784   28.5214 C   0  0  0  0  0  0  0  0  0  0  0  0
  2  7  1  0
  6  8  1  0
  8  9  1  0
  8 10  2  0
  9 11  1  0
 11 12  1  0
 16 18  1  0
 18 19  1  0
 18 20  2  0
 11 21  2  0
  3 22  1  0
 22 23  3  0
 23 24  1  0
 24 25  2  0
 12 13  2  0
 13 14  1  0
 14 15  2  0
 15 16  1  0
 16 17  2  0
 17 12  1  0
  1  2  2  0
  2  3  1  0
  3  4  2  0
  4  5  1  0
  5  6  2  0
  6  1  1  0
M  END

$$$$
