No_3199-gen_results/8p0m/2024-11-27-11-27-31/
     RDKit          3D

 17 18  0  0  0  0  0  0  0  0999 V2000
  -28.0162   -0.8135   28.8779 C   0  0  0  0  0  0  0  0  0  0  0  0
  -27.0636   -0.1190   28.6079 C   0  0  0  0  0  0  0  0  0  0  0  0
  -26.9849    0.5972   27.5218 N   0  0  0  0  0  0  0  0  0  0  0  0
  -29.2908   -0.4367   28.3661 C   0  0  0  0  0  0  0  0  0  0  0  0
  -29.3203    0.4079   27.3056 C   0  0  0  0  0  0  0  0  0  0  0  0
  -28.1194    0.9858   26.9061 C   0  0  0  0  0  0  0  0  0  0  0  0
  -27.9504   -1.7136   30.0822 C   0  0  0  0  0  0  0  0  0  0  0  0
  -26.9403   -2.3730   30.3157 O   0  0  0  0  0  0  0  0  0  0  0  0
  -29.0370   -2.0387   30.6783 F   0  0  0  0  0  0  0  0  0  0  0  0
  -28.2213    1.8728   25.8453 N   0  0  0  0  0  0  0  0  0  0  0  0
  -30.4285    0.8372   26.4047 C   0  0  0  0  0  0  0  0  0  0  0  0
  -29.2179    2.2019   25.1196 C   0  0  0  0  0  0  0  0  0  0  0  0
  -30.2135    1.8329   25.4029 C   0  0  0  0  0  0  0  0  0  0  0  0
  -31.7365    0.2594   26.7618 C   0  0  0  0  0  0  0  0  0  0  0  0
  -31.8277   -0.7416   27.1796 O   0  0  0  0  0  0  0  0  0  0  0  0
  -32.7793    0.8279   26.0866 N   0  0  0  0  0  0  0  0  0  0  0  0
  -34.0952    0.2799   26.2317 C   0  0  0  0  0  0  0  0  0  0  0  0
  1  7  1  0
  7  8  2  0
  7  9  1  0
 11 14  1  0
 14 15  2  0
 14 16  1  0
 16 17  1  0
  6 10  1  0
 10 12  2  0
 12 13  1  0
 13 11  2  0
 11  5  1  0
  1  2  2  0
  2  3  1  0
  3  6  2  0
  6  5  1  0
  5  4  2  0
  4  1  1  0
M  END

$$$$
