No_3409-gen_results/8p0m/2024-11-27-11-27-31/
     RDKit          3D

 19 21  0  0  0  0  0  0  0  0999 V2000
  -28.0162   -0.8135   28.8779 C   0  0  0  0  0  0  0  0  0  0  0  0
  -27.0636   -0.1189   28.6079 C   0  0  0  0  0  0  0  0  0  0  0  0
  -26.8756    1.1325   28.9134 C   0  0  0  0  0  0  0  0  0  0  0  0
  -27.9014    1.8066   29.6436 C   0  0  0  0  0  0  0  0  0  0  0  0
  -29.0458   -0.2316   29.7181 C   0  0  0  0  0  0  0  0  0  0  0  0
  -28.9402    1.0517   30.0597 C   0  0  0  0  0  0  0  0  0  0  0  0
  -25.6732   -0.8166   27.6816 S   0  0  0  0  0  0  0  0  0  0  0  0
  -24.3612   -0.0247   28.2450 C   0  0  0  0  0  0  0  0  0  0  0  0
  -23.9903    1.1748   27.7071 C   0  0  0  0  0  0  0  0  0  0  0  0
  -24.5668    1.8792   26.6550 C   0  0  0  0  0  0  0  0  0  0  0  0
  -25.4624    1.3593   25.8810 C   0  0  0  0  0  0  0  0  0  0  0  0
  -23.4838   -0.6167   29.2134 C   0  0  0  0  0  0  0  0  0  0  0  0
  -22.3321    0.0255   29.6102 C   0  0  0  0  0  0  0  0  0  0  0  0
  -21.8950    1.1858   29.0322 C   0  0  0  0  0  0  0  0  0  0  0  0
  -22.6976    1.7636   28.1257 C   0  0  0  0  0  0  0  0  0  0  0  0
  -24.4334    3.3246   26.6536 C   0  0  0  0  0  0  0  0  0  0  0  0
  -26.6023    1.9932   25.3914 C   0  0  0  0  0  0  0  0  0  0  0  0
  -25.3944    4.1766   25.9879 C   0  0  0  0  0  0  0  0  0  0  0  0
  -26.3982    3.5031   25.3436 C   0  0  0  0  0  0  0  0  0  0  0  0
  2  7  1  0
  7  8  1  0
  9 10  1  0
  8  9  2  0
  9 15  1  0
 15 14  2  0
 14 13  1  0
 13 12  2  0
 12  8  1  0
  1  2  2  0
  2  3  1  0
  3  4  2  0
  4  6  1  0
  6  5  2  0
  5  1  1  0
 10 11  2  0
 11 17  1  0
 17 19  2  0
 19 18  1  0
 18 16  2  0
 16 10  1  0
M  END

$$$$
