No_3915-gen_results/8p0m/2024-11-27-11-27-31/
     RDKit          3D

 25 27  0  0  0  0  0  0  0  0999 V2000
  -28.0162   -0.8135   28.8779 C   0  0  0  0  0  0  0  0  0  0  0  0
  -28.4690   -0.7850   29.8287 C   0  0  0  0  0  0  0  0  0  0  0  0
  -28.1960    0.3478   28.0550 C   0  0  0  0  0  0  0  0  0  0  0  0
  -29.0191    1.3501   28.3782 C   0  0  0  0  0  0  0  0  0  0  0  0
  -29.4107    0.1803   30.3782 C   0  0  0  0  0  0  0  0  0  0  0  0
  -29.6059    1.2495   29.6193 C   0  0  0  0  0  0  0  0  0  0  0  0
  -27.3479    0.2333   26.8118 C   0  0  0  0  0  0  0  0  0  0  0  0
  -25.9799    0.2156   26.8765 N   0  0  0  0  0  0  0  0  0  0  0  0
  -25.2260    1.1325   27.4893 C   0  0  0  0  0  0  0  0  0  0  0  0
  -24.3213    1.0219   28.3479 C   0  0  0  0  0  0  0  0  0  0  0  0
  -23.9359   -0.1089   29.0500 C   0  0  0  0  0  0  0  0  0  0  0  0
  -22.8328   -0.1026   29.9318 C   0  0  0  0  0  0  0  0  0  0  0  0
  -25.3843    2.5126   26.9338 C   0  0  0  0  0  0  0  0  0  0  0  0
  -26.1201    2.9981   26.1963 C   0  0  0  0  0  0  0  0  0  0  0  0
  -24.3373    3.3407   27.7267 C   0  0  0  0  0  0  0  0  0  0  0  0
  -23.6719    2.3374   28.6469 C   0  0  0  0  0  0  0  0  0  0  0  0
  -24.5500   -1.3704   28.8465 C   0  0  0  0  0  0  0  0  0  0  0  0
  -24.1211   -2.5105   29.5043 C   0  0  0  0  0  0  0  0  0  0  0  0
  -22.4291   -1.2199   30.6662 C   0  0  0  0  0  0  0  0  0  0  0  0
  -23.0477   -2.3801   30.4389 C   0  0  0  0  0  0  0  0  0  0  0  0
  -27.8931    0.3607   25.7192 O   0  0  0  0  0  0  0  0  0  0  0  0
  -24.6702   -3.6256   29.3100 F   0  0  0  0  0  0  0  0  0  0  0  0
  -28.3068   -2.0167   30.9237 C   0  0  0  0  0  0  0  0  0  0  0  0
  -27.2739   -2.4986   30.9355 O   0  0  0  0  0  0  0  0  0  0  0  0
  -29.3379   -2.3895   31.5626 O   0  0  0  0  0  0  0  0  0  0  0  0
  3  7  1  0
  7  8  1  0
  8  9  1  0
  9 10  2  0
 10 11  1  0
  9 13  1  0
 13 14  1  0
 13 15  1  0
 10 16  1  0
 15 16  1  0
  7 21  2  0
 18 22  1  0
  2 23  1  0
 23 24  2  0
 23 25  1  0
  1  2  2  0
  2  5  1  0
  5  6  2  0
  6  4  1  0
  4  3  2  0
  3  1  1  0
 11 12  2  0
 12 19  1  0
 19 20  2  0
 20 18  1  0
 18 17  2  0
 17 11  1  0
M  END

$$$$
