No_3084-gen_results/8p0m/2024-11-27-11-27-31/
     RDKit          3D

 11 11  0  0  0  0  0  0  0  0999 V2000
  -28.1229   -1.3353   28.4874 O   0  0  0  0  0  0  0  0  0  0  0  0
  -27.4806   -0.4044   28.7094 C   0  0  0  0  0  0  0  0  0  0  0  0
  -27.1904    0.2460   29.5268 C   0  0  0  0  0  0  0  0  0  0  0  0
  -26.7333   -0.0753   27.4606 O   0  0  0  0  0  0  0  0  0  0  0  0
  -27.6654    0.3258   30.7875 C   0  0  0  0  0  0  0  0  0  0  0  0
  -27.3085    1.1242   31.9265 C   0  0  0  0  0  0  0  0  0  0  0  0
  -26.2098    2.0676   31.6644 C   0  0  0  0  0  0  0  0  0  0  0  0
  -25.5899    2.0524   30.3911 C   0  0  0  0  0  0  0  0  0  0  0  0
  -26.0144    1.1829   29.4619 C   0  0  0  0  0  0  0  0  0  0  0  0
  -25.4963   -0.2661   27.2418 C   0  0  0  0  0  0  0  0  0  0  0  0
  -24.8746    0.6314   28.4022 C   0  0  0  0  0  0  0  0  0  0  0  0
  1  2  2  0
  2  3  1  0
  2  4  1  0
  4 10  1  0
 10 11  1  0
  3  5  2  0
  5  6  1  0
  6  7  2  0
  7  8  1  0
  8  9  2  0
  9  3  1  0
M  END

$$$$
