No_3529-gen_results/8p0m/2024-11-27-11-27-31/
     RDKit          3D

 13 13  0  0  0  0  0  0  0  0999 V2000
  -28.0162   -0.8135   28.8779 C   0  0  0  0  0  0  0  0  0  0  0  0
  -27.0636   -0.1189   28.6079 C   0  0  0  0  0  0  0  0  0  0  0  0
  -26.9716    0.7139   27.5060 C   0  0  0  0  0  0  0  0  0  0  0  0
  -28.1053    0.7744   26.6421 C   0  0  0  0  0  0  0  0  0  0  0  0
  -28.0677    1.4872   25.5121 C   0  0  0  0  0  0  0  0  0  0  0  0
  -27.9701   -1.5888   30.1391 C   0  0  0  0  0  0  0  0  0  0  0  0
  -29.0554   -2.2821   30.4349 F   0  0  0  0  0  0  0  0  0  0  0  0
  -27.6612   -0.8997   31.2847 F   0  0  0  0  0  0  0  0  0  0  0  0
  -26.8990   -2.4844   30.0339 F   0  0  0  0  0  0  0  0  0  0  0  0
  -29.1883    1.4780   24.7218 C   0  0  0  0  0  0  0  0  0  0  0  0
  -30.2575    0.6996   24.9531 C   0  0  0  0  0  0  0  0  0  0  0  0
  -30.2285   -0.0813   26.0863 C   0  0  0  0  0  0  0  0  0  0  0  0
  -29.2075   -0.0452   26.9305 C   0  0  0  0  0  0  0  0  0  0  0  0
  1  2  2  3
  2  3  1  0
  3  4  1  0
  1  6  1  0
  6  7  1  0
  6  8  1  0
  6  9  1  0
  4  5  2  0
  5 10  1  0
 10 11  2  0
 11 12  1  0
 12 13  2  0
 13  4  1  0
M  END

$$$$
