No_3256-gen_results/8p0m/2024-11-27-11-27-31/
     RDKit          3D

 34 37  0  0  0  0  0  0  0  0999 V2000
  -28.0727   -1.2542   28.5316 F   0  0  0  0  0  0  0  0  0  0  0  0
  -28.2662   -0.4214   29.1931 C   0  0  0  0  0  0  0  0  0  0  0  0
  -29.4445    0.0759   29.3394 C   0  0  0  0  0  0  0  0  0  0  0  0
  -29.7073    1.1743   30.2277 C   0  0  0  0  0  0  0  0  0  0  0  0
  -28.5970    1.7109   30.9110 C   0  0  0  0  0  0  0  0  0  0  0  0
  -27.3024    1.1821   30.7905 C   0  0  0  0  0  0  0  0  0  0  0  0
  -27.1217    0.1218   29.9802 C   0  0  0  0  0  0  0  0  0  0  0  0
  -25.7977   -0.4266   29.8456 C   0  0  0  0  0  0  0  0  0  0  0  0
  -24.9020   -0.1164   29.3593 C   0  0  0  0  0  0  0  0  0  0  0  0
  -24.7786    1.2995   28.7582 C   0  0  0  0  0  0  0  0  0  0  0  0
  -23.5365    1.7003   28.1498 C   0  0  0  0  0  0  0  0  0  0  0  0
  -22.3947    0.8736   28.2937 C   0  0  0  0  0  0  0  0  0  0  0  0
  -22.4075   -0.3617   28.8518 C   0  0  0  0  0  0  0  0  0  0  0  0
  -23.5906   -0.8071   29.3761 C   0  0  0  0  0  0  0  0  0  0  0  0
  -25.8381   -1.8669   30.4434 C   0  0  0  0  0  0  0  0  0  0  0  0
  -21.2280    1.3357   27.8061 F   0  0  0  0  0  0  0  0  0  0  0  0
  -24.9507   -2.6993   30.1638 N   0  0  0  0  0  0  0  0  0  0  0  0
  -23.7129   -2.2082   29.7649 C   0  0  0  0  0  0  0  0  0  0  0  0
  -27.0008   -2.3810   30.8815 F   0  0  0  0  0  0  0  0  0  0  0  0
  -30.4696   -0.4012   28.7001 O   0  0  0  0  0  0  0  0  0  0  0  0
  -31.1474    0.1677   27.8282 C   0  0  0  0  0  0  0  0  0  0  0  0
  -32.3587    0.1436   27.8503 C   0  0  0  0  0  0  0  0  0  0  0  0
  -33.0154    0.8233   27.0647 O   0  0  0  0  0  0  0  0  0  0  0  0
  -33.1259   -0.6784   28.7086 N   0  0  0  0  0  0  0  0  0  0  0  0
  -30.4251    0.7690   26.9287 O   0  0  0  0  0  0  0  0  0  0  0  0
  -34.5563   -0.8012   28.7412 C   0  0  0  0  0  0  0  0  0  0  0  0
  -34.9377   -1.8199   29.3111 C   0  0  0  0  0  0  0  0  0  0  0  0
  -36.2956   -2.1379   29.4579 C   0  0  0  0  0  0  0  0  0  0  0  0
  -37.2111   -1.1704   28.8701 C   0  0  0  0  0  0  0  0  0  0  0  0
  -36.6996   -0.0760   28.2287 C   0  0  0  0  0  0  0  0  0  0  0  0
  -35.3366    0.1776   28.1743 C   0  0  0  0  0  0  0  0  0  0  0  0
  -37.6189    0.9447   27.6661 C   0  0  0  0  0  0  0  0  0  0  0  0
  -37.6676    1.1117   26.4291 C   0  0  0  0  0  0  0  0  0  0  0  0
  -38.1633    1.8256   25.7074 C   0  0  0  0  0  0  0  0  0  0  0  0
  1  2  1  0
  7  8  1  0
 12 16  1  0
 15 19  1  0
  3 20  1  0
 20 21  1  0
 21 22  1  0
 22 23  2  0
 22 24  1  0
 21 25  2  0
 24 26  1  0
 30 32  1  0
 32 33  2  3
 33 34  1  0
 26 27  2  0
 27 28  1  0
 28 29  2  0
 29 30  1  0
 30 31  2  0
 31 26  1  0
  2  3  2  0
  3  4  1  0
  4  5  2  0
  5  6  1  0
  6  7  2  0
  7  2  1  0
  8  9  1  0
 14 18  1  0
 18 17  2  0
 17 15  1  0
 15  8  2  0
  9 10  2  0
 10 11  1  0
 11 12  2  0
 12 13  1  0
 13 14  2  0
 14  9  1  0
M  END

$$$$
