No_3730-gen_results/8p0m/2024-11-27-11-27-31/
     RDKit          3D

 20 21  0  0  0  0  0  0  0  0999 V2000
  -28.0162   -0.8135   28.8779 C   0  0  0  0  0  0  0  0  0  0  0  0
  -28.4690   -0.7850   29.8287 C   0  0  0  0  0  0  0  0  0  0  0  0
  -28.1960    0.3478   28.0550 C   0  0  0  0  0  0  0  0  0  0  0  0
  -29.0191    1.3501   28.3782 C   0  0  0  0  0  0  0  0  0  0  0  0
  -28.3170   -1.9812   30.8560 C   0  0  0  0  0  0  0  0  0  0  0  0
  -29.5950    1.2859   29.6049 C   0  0  0  0  0  0  0  0  0  0  0  0
  -29.3465    0.2093   30.3749 C   0  0  0  0  0  0  0  0  0  0  0  0
  -29.2109   -2.9241   30.8475 N   0  0  0  0  0  0  0  0  0  0  0  0
  -29.9712   -3.0295   31.7751 C   0  0  0  0  0  0  0  0  0  0  0  0
  -30.8895   -3.5921   32.0069 C   0  0  0  0  0  0  0  0  0  0  0  0
  -31.4222   -4.4055   30.8904 C   0  0  0  0  0  0  0  0  0  0  0  0
  -30.6525   -4.4427   29.7183 C   0  0  0  0  0  0  0  0  0  0  0  0
  -29.5187   -3.6021   29.6846 C   0  0  0  0  0  0  0  0  0  0  0  0
  -27.4132    0.3766   26.4662 Cl  0  0  0  0  0  0  0  0  0  0  0  0
  -30.9640   -5.1861   28.6759 O   0  0  0  0  0  0  0  0  0  0  0  0
  -27.1863   -2.0273   31.4129 O   0  0  0  0  0  0  0  0  0  0  0  0
  -31.8436   -4.8170   27.8217 C   0  0  0  0  0  0  0  0  0  0  0  0
  -33.0414   -5.4150   28.0438 C   0  0  0  0  0  0  0  0  0  0  0  0
  -34.4583   -4.9633   27.2757 Cl  0  0  0  0  0  0  0  0  0  0  0  0
  -33.0253   -6.9355   27.8825 N   0  0  0  0  0  0  0  0  0  0  0  0
  2  5  1  0
  5  8  1  0
  8  9  1  0
 10 11  1  0
  8 13  1  0
 12 13  1  0
  3 14  1  0
 12 15  1  0
  5 16  2  0
 15 17  1  0
 17 18  1  0
 18 19  1  0
 18 20  1  0
  9 10  1  0
 11 12  1  0
  1  2  2  0
  2  7  1  0
  7  6  2  0
  6  4  1  0
  4  3  2  0
  3  1  1  0
M  END

$$$$
