No_3190-gen_results/8p0m/2024-11-27-11-27-31/
     RDKit          3D

 22 24  0  0  0  0  0  0  0  0999 V2000
  -28.1229   -1.3353   28.4874 O   0  0  0  0  0  0  0  0  0  0  0  0
  -27.4806   -0.4044   28.7094 C   0  0  0  0  0  0  0  0  0  0  0  0
  -26.3804   -0.0867   27.9394 C   0  0  0  0  0  0  0  0  0  0  0  0
  -27.6664    0.4468   29.8988 N   0  0  0  0  0  0  0  0  0  0  0  0
  -25.1773   -0.4388   28.3946 C   0  0  0  0  0  0  0  0  0  0  0  0
  -26.5259    0.6036   26.6867 C   0  0  0  0  0  0  0  0  0  0  0  0
  -23.9372    0.0372   27.6524 C   0  0  0  0  0  0  0  0  0  0  0  0
  -27.8035    0.9085   26.2111 C   0  0  0  0  0  0  0  0  0  0  0  0
  -24.0759    0.8357   26.5844 C   0  0  0  0  0  0  0  0  0  0  0  0
  -25.3696    1.0734   25.9988 C   0  0  0  0  0  0  0  0  0  0  0  0
  -28.7131    0.1078   30.8227 C   0  0  0  0  0  0  0  0  0  0  0  0
  -28.2053    0.4731   24.9798 C   0  0  0  0  0  0  0  0  0  0  0  0
  -29.5018    0.6652   24.4687 C   0  0  0  0  0  0  0  0  0  0  0  0
  -30.4335    1.3143   25.2340 C   0  0  0  0  0  0  0  0  0  0  0  0
  -30.0611    1.8228   26.5197 C   0  0  0  0  0  0  0  0  0  0  0  0
  -28.8209    1.5877   27.0396 C   0  0  0  0  0  0  0  0  0  0  0  0
  -26.8913    1.6010   30.1127 C   0  0  0  0  0  0  0  0  0  0  0  0
  -27.5396    2.7520   30.1444 C   0  0  0  0  0  0  0  0  0  0  0  0
  -26.7993    3.8791   29.6249 C   0  0  0  0  0  0  0  0  0  0  0  0
  -25.4529    3.7322   29.2791 C   0  0  0  0  0  0  0  0  0  0  0  0
  -24.8118    2.5058   29.3284 C   0  0  0  0  0  0  0  0  0  0  0  0
  -25.5080    1.4243   29.8450 C   0  0  0  0  0  0  0  0  0  0  0  0
  1  2  2  0
  2  3  1  0
  2  4  1  0
  6  8  1  0
  4 11  1  0
  4 17  1  0
 17 18  2  0
 18 19  1  0
 19 20  2  0
 20 21  1  0
 21 22  2  0
 22 17  1  0
  8 12  2  0
 12 13  1  0
 13 14  2  0
 14 15  1  0
 15 16  2  0
 16  8  1  0
  3  5  2  0
  5  7  1  0
  7  9  2  0
  9 10  1  0
 10  6  2  0
  6  3  1  0
M  END

$$$$
