No_352-gen_results/8p0m/2024-11-27-11-27-31/
     RDKit          3D

 23 24  0  0  0  0  0  0  0  0999 V2000
  -28.1229   -1.3353   28.4874 O   0  0  0  0  0  0  0  0  0  0  0  0
  -27.4806   -0.4044   28.7094 C   0  0  0  0  0  0  0  0  0  0  0  0
  -26.4599   -0.1104   28.0051 N   0  0  0  0  0  0  0  0  0  0  0  0
  -26.1476   -0.4948   26.8760 C   0  0  0  0  0  0  0  0  0  0  0  0
  -27.9570    0.7379   29.5934 C   0  0  0  0  0  0  0  0  0  0  0  0
  -27.5675    1.7035   29.9102 C   0  0  0  0  0  0  0  0  0  0  0  0
  -26.2248    1.9983   29.2481 C   0  0  0  0  0  0  0  0  0  0  0  0
  -25.6111    1.2200   28.2575 C   0  0  0  0  0  0  0  0  0  0  0  0
  -24.4766    1.5413   27.5947 C   0  0  0  0  0  0  0  0  0  0  0  0
  -23.2709    1.4050   28.2911 C   0  0  0  0  0  0  0  0  0  0  0  0
  -22.1968    0.9793   27.9062 C   0  0  0  0  0  0  0  0  0  0  0  0
  -21.0702    0.8432   28.7845 C   0  0  0  0  0  0  0  0  0  0  0  0
  -24.5059    1.7796   26.2048 C   0  0  0  0  0  0  0  0  0  0  0  0
  -24.9026    0.8127   25.2403 C   0  0  0  0  0  0  0  0  0  0  0  0
  -25.9257   -0.0832   25.4746 C   0  0  0  0  0  0  0  0  0  0  0  0
  -23.4548    1.6306   29.6309 F   0  0  0  0  0  0  0  0  0  0  0  0
  -29.2833    0.2409   30.3225 C   0  0  0  0  0  0  0  0  0  0  0  0
  -30.2566    0.3345   29.7293 O   0  0  0  0  0  0  0  0  0  0  0  0
  -30.6670    1.4014   29.3366 C   0  0  0  0  0  0  0  0  0  0  0  0
  -30.9011    1.5806   28.1090 C   0  0  0  0  0  0  0  0  0  0  0  0
  -31.3309    0.5700   27.3280 C   0  0  0  0  0  0  0  0  0  0  0  0
  -31.1444    0.4540   26.2625 C   0  0  0  0  0  0  0  0  0  0  0  0
  -30.5986    1.5474   25.4047 C   0  0  0  0  0  0  0  0  0  0  0  0
  1  2  2  0
  2  3  1  0
  3  4  1  0
  2  5  1  0
  5  6  1  0
  6  7  1  0
  3  8  1  0
  8  9  1  0
  9 10  1  0
 10 11  2  3
 11 12  1  0
  9 13  1  0
 13 14  2  0
  4 15  1  0
 14 15  1  0
 10 16  1  0
  5 17  1  0
 17 18  1  0
 18 19  1  0
 19 20  2  3
 20 21  1  0
 21 22  2  3
 22 23  1  0
  7  8  1  0
M  END

$$$$
