No_3159-gen_results/8p0m/2024-11-27-11-27-31/
     RDKit          3D

 28 29  0  0  0  0  0  0  0  0999 V2000
  -28.0162   -0.8135   28.8779 C   0  0  0  0  0  0  0  0  0  0  0  0
  -27.0636   -0.1189   28.6079 C   0  0  0  0  0  0  0  0  0  0  0  0
  -26.9716    0.7139   27.5060 C   0  0  0  0  0  0  0  0  0  0  0  0
  -28.1053    0.7744   26.6421 C   0  0  0  0  0  0  0  0  0  0  0  0
  -29.2008    0.1044   27.0527 C   0  0  0  0  0  0  0  0  0  0  0  0
  -29.2096   -0.6029   28.1853 C   0  0  0  0  0  0  0  0  0  0  0  0
  -30.3702    0.2264   26.1604 C   0  0  0  0  0  0  0  0  0  0  0  0
  -31.2210   -0.4630   26.3096 O   0  0  0  0  0  0  0  0  0  0  0  0
  -30.3688    1.0652   25.1324 O   0  0  0  0  0  0  0  0  0  0  0  0
  -25.7012   -0.2199   29.4303 C   0  0  0  0  0  0  0  0  0  0  0  0
  -25.5482   -0.7305   30.3293 C   0  0  0  0  0  0  0  0  0  0  0  0
  -24.2532   -0.8170   31.0982 C   0  0  0  0  0  0  0  0  0  0  0  0
  -23.1282   -0.2372   30.4908 C   0  0  0  0  0  0  0  0  0  0  0  0
  -23.3033    0.4419   29.2828 C   0  0  0  0  0  0  0  0  0  0  0  0
  -24.5928    0.4432   28.6259 C   0  0  0  0  0  0  0  0  0  0  0  0
  -22.1125    1.0155   28.6545 C   0  0  0  0  0  0  0  0  0  0  0  0
  -22.2729    1.7540   27.5129 N   0  0  0  0  0  0  0  0  0  0  0  0
  -20.9461    0.7047   28.9556 O   0  0  0  0  0  0  0  0  0  0  0  0
  -23.4423    2.3529   27.0428 C   0  0  0  0  0  0  0  0  0  0  0  0
  -23.5899    2.9738   25.7817 C   0  0  0  0  0  0  0  0  0  0  0  0
  -24.6142    2.2843   27.9213 C   0  0  0  0  0  0  0  0  0  0  0  0
  -24.7183    3.2704   29.0076 C   0  0  0  0  0  0  0  0  0  0  0  0
  -25.7963    2.2517   26.9800 C   0  0  0  0  0  0  0  0  0  0  0  0
  -25.4728    2.2276   25.6826 C   0  0  0  0  0  0  0  0  0  0  0  0
  -26.1322    0.1164   26.8221 F   0  0  0  0  0  0  0  0  0  0  0  0
  -26.8082    3.4973   27.4983 C   0  0  0  0  0  0  0  0  0  0  0  0
  -24.3544   -0.2566   27.5012 O   0  0  0  0  0  0  0  0  0  0  0  0
  -26.8649    2.5943   27.3262 Cl  0  0  0  0  0  0  0  0  0  0  0  0
  5  7  1  0
  7  8  1  0
  7  9  2  0
  2 10  1  0
 14 16  1  0
 16 17  1  0
 16 18  2  0
 17 19  1  0
 19 20  1  0
 19 21  1  0
 21 22  1  0
 21 23  1  0
 23 24  1  0
  3 25  1  0
 23 26  1  0
 15 27  1  0
 26 28  1  0
  1  2  2  0
  2  3  1  0
  3  4  2  0
  4  5  1  0
  5  6  2  0
  6  1  1  0
 10 11  2  0
 11 12  1  0
 12 13  2  0
 13 14  1  0
 14 15  2  0
 15 10  1  0
M  END

$$$$
