No_3477-gen_results/8p0m/2024-11-27-11-27-31/
     RDKit          3D

 13 13  0  0  0  0  0  0  0  0999 V2000
  -28.0162   -0.8135   28.8779 C   0  0  0  0  0  0  0  0  0  0  0  0
  -28.4690   -0.7850   29.8287 C   0  0  0  0  0  0  0  0  0  0  0  0
  -28.1816    0.4277   28.1134 C   0  0  0  0  0  0  0  0  0  0  0  0
  -28.9841    1.4155   28.5154 C   0  0  0  0  0  0  0  0  0  0  0  0
  -29.3802    0.1384   30.4612 C   0  0  0  0  0  0  0  0  0  0  0  0
  -29.5415    1.2736   29.7242 C   0  0  0  0  0  0  0  0  0  0  0  0
  -27.5429    0.6374   26.7442 C   0  0  0  0  0  0  0  0  0  0  0  0
  -26.2518    0.4764   26.7271 N   0  0  0  0  0  0  0  0  0  0  0  0
  -25.5085    0.0183   27.6989 C   0  0  0  0  0  0  0  0  0  0  0  0
  -24.3951    0.6916   28.3047 C   0  0  0  0  0  0  0  0  0  0  0  0
  -23.5699    0.1190   29.2597 C   0  0  0  0  0  0  0  0  0  0  0  0
  -23.7206   -1.2534   29.4967 C   0  0  0  0  0  0  0  0  0  0  0  0
  -25.6091   -1.2994   28.0865 F   0  0  0  0  0  0  0  0  0  0  0  0
  3  7  1  0
  7  8  1  0
  8  9  2  3
  9 10  1  0
 10 11  2  3
 11 12  1  0
  9 13  1  0
  1  2  2  0
  2  5  1  0
  5  6  2  0
  6  4  1  0
  4  3  2  0
  3  1  1  0
M  END

$$$$
