No_3827-gen_results/8p0m/2024-11-27-11-27-31/
     RDKit          3D

 13 13  0  0  0  0  0  0  0  0999 V2000
  -28.0162   -0.8135   28.8779 C   0  0  0  0  0  0  0  0  0  0  0  0
  -27.0636   -0.1189   28.6079 C   0  0  0  0  0  0  0  0  0  0  0  0
  -27.0425    0.2440   27.4277 F   0  0  0  0  0  0  0  0  0  0  0  0
  -29.0070   -0.5324   28.2228 F   0  0  0  0  0  0  0  0  0  0  0  0
  -27.7901   -2.1602   28.8729 F   0  0  0  0  0  0  0  0  0  0  0  0
  -25.7699   -0.7068   28.8579 F   0  0  0  0  0  0  0  0  0  0  0  0
  -26.8396    1.1301   29.5625 C   0  0  0  0  0  0  0  0  0  0  0  0
  -26.0831    1.8575   29.8570 C   0  0  0  0  0  0  0  0  0  0  0  0
  -26.1637    2.9569   30.7997 C   0  0  0  0  0  0  0  0  0  0  0  0
  -27.3474    3.1782   31.3442 C   0  0  0  0  0  0  0  0  0  0  0  0
  -28.3843    2.3141   31.0224 C   0  0  0  0  0  0  0  0  0  0  0  0
  -28.2162    1.2893   30.1938 C   0  0  0  0  0  0  0  0  0  0  0  0
  -28.2097   -0.8527   30.1105 F   0  0  0  0  0  0  0  0  0  0  0  0
  1  2  1  0
  2  3  1  0
  1  4  1  0
  1  5  1  0
  2  6  1  0
  2  7  1  0
  1 13  1  0
  7  8  2  0
  8  9  1  0
  9 10  2  0
 10 11  1  0
 11 12  2  0
 12  7  1  0
M  END

$$$$
