No_3566-gen_results/8p0m/2024-11-27-11-27-31/
     RDKit          3D

 19 20  0  0  0  0  0  0  0  0999 V2000
  -28.0162   -0.8135   28.8779 C   0  0  0  0  0  0  0  0  0  0  0  0
  -27.0636   -0.1189   28.6079 C   0  0  0  0  0  0  0  0  0  0  0  0
  -25.7647   -0.3897   29.0360 C   0  0  0  0  0  0  0  0  0  0  0  0
  -25.5296   -1.5302   29.9014 C   0  0  0  0  0  0  0  0  0  0  0  0
  -26.6888   -2.2893   30.1810 C   0  0  0  0  0  0  0  0  0  0  0  0
  -27.8727   -1.9508   29.7373 C   0  0  0  0  0  0  0  0  0  0  0  0
  -28.9304   -2.7298   30.1154 O   0  0  0  0  0  0  0  0  0  0  0  0
  -24.5394    0.4211   28.7421 C   0  0  0  0  0  0  0  0  0  0  0  0
  -24.5259    1.2743   27.7265 C   0  0  0  0  0  0  0  0  0  0  0  0
  -23.3416    1.9045   27.3361 C   0  0  0  0  0  0  0  0  0  0  0  0
  -22.1280    1.7084   27.9936 C   0  0  0  0  0  0  0  0  0  0  0  0
  -23.2921    0.1076   29.3655 C   0  0  0  0  0  0  0  0  0  0  0  0
  -22.0894    0.7943   29.0137 C   0  0  0  0  0  0  0  0  0  0  0  0
  -28.7729   -3.9943   30.6474 C   0  0  0  0  0  0  0  0  0  0  0  0
  -29.8023   -4.8666   30.2192 C   0  0  0  0  0  0  0  0  0  0  0  0
  -29.7910   -6.0100   30.9819 F   0  0  0  0  0  0  0  0  0  0  0  0
  -29.6178   -5.3110   28.9775 F   0  0  0  0  0  0  0  0  0  0  0  0
  -31.0647   -4.3912   30.2554 F   0  0  0  0  0  0  0  0  0  0  0  0
  -28.8914   -3.8858   32.0837 F   0  0  0  0  0  0  0  0  0  0  0  0
  6  7  1  0
  3  8  1  0
  7 14  1  0
 14 15  1  0
 15 16  1  0
 15 17  1  0
 15 18  1  0
 14 19  1  0
  1  2  2  0
  2  3  1  0
  3  4  2  0
  4  5  1  0
  5  6  2  0
  6  1  1  0
  8  9  2  0
  9 10  1  0
 10 11  2  0
 11 13  1  0
 13 12  2  0
 12  8  1  0
M  END

$$$$
