No_3083-gen_results/8p0m/2024-11-27-11-27-31/
     RDKit          3D

 25 27  0  0  0  0  0  0  0  0999 V2000
  -28.1229   -1.3353   28.4874 O   0  0  0  0  0  0  0  0  0  0  0  0
  -28.5208   -0.4363   29.0779 C   0  0  0  0  0  0  0  0  0  0  0  0
  -27.9150    0.0780   30.0386 O   0  0  0  0  0  0  0  0  0  0  0  0
  -29.8074    0.1885   28.6630 C   0  0  0  0  0  0  0  0  0  0  0  0
  -30.8246   -0.1278   29.2563 C   0  0  0  0  0  0  0  0  0  0  0  0
  -32.1083    0.3977   28.7646 C   0  0  0  0  0  0  0  0  0  0  0  0
  -32.0462    1.2673   27.6549 C   0  0  0  0  0  0  0  0  0  0  0  0
  -30.8242    1.5582   27.0408 C   0  0  0  0  0  0  0  0  0  0  0  0
  -29.6319    1.0185   27.5262 C   0  0  0  0  0  0  0  0  0  0  0  0
  -33.2837    1.8880   27.1276 C   0  0  0  0  0  0  0  0  0  0  0  0
  -33.3318    2.3955   26.0289 C   0  0  0  0  0  0  0  0  0  0  0  0
  -32.0175    2.7525   25.3122 C   0  0  0  0  0  0  0  0  0  0  0  0
  -30.7758    2.3434   25.8214 C   0  0  0  0  0  0  0  0  0  0  0  0
  -28.3391    1.3047   26.8736 C   0  0  0  0  0  0  0  0  0  0  0  0
  -27.9140    0.7374   25.7317 C   0  0  0  0  0  0  0  0  0  0  0  0
  -26.6230    1.0369   25.2813 C   0  0  0  0  0  0  0  0  0  0  0  0
  -25.7251    1.8108   26.0770 C   0  0  0  0  0  0  0  0  0  0  0  0
  -26.1402    2.3485   27.2534 C   0  0  0  0  0  0  0  0  0  0  0  0
  -27.4767    2.1290   27.7093 C   0  0  0  0  0  0  0  0  0  0  0  0
  -26.6811   -0.3806   30.5644 C   0  0  0  0  0  0  0  0  0  0  0  0
  -25.6663   -0.2156   29.7511 C   0  0  0  0  0  0  0  0  0  0  0  0
  -24.7889    0.8315   29.9920 C   0  0  0  0  0  0  0  0  0  0  0  0
  -23.5165    0.8829   29.2337 C   0  0  0  0  0  0  0  0  0  0  0  0
  -23.1660   -0.3381   28.5902 C   0  0  0  0  0  0  0  0  0  0  0  0
  -24.0258   -1.3815   28.4169 C   0  0  0  0  0  0  0  0  0  0  0  0
  1  2  2  0
  2  3  1  0
  2  4  1  0
  9 14  1  0
  3 20  1  0
 20 21  1  0
 21 22  3  0
 22 23  1  0
 23 24  2  3
 24 25  1  0
  8 13  1  0
 13 12  2  0
 12 11  1  0
 11 10  2  0
 10  7  1  0
 14 15  2  0
 15 16  1  0
 16 17  2  0
 17 18  1  0
 18 19  2  0
 19 14  1  0
  4  5  2  0
  5  6  1  0
  6  7  2  0
  7  8  1  0
  8  9  2  0
  9  4  1  0
M  END

$$$$
