No_3976-gen_results/8p0m/2024-11-27-11-27-31/
     RDKit          3D

 15 16  0  0  0  0  0  0  0  0999 V2000
  -28.0162   -0.8135   28.8779 C   0  0  0  0  0  0  0  0  0  0  0  0
  -28.4690   -0.7850   29.8287 C   0  0  0  0  0  0  0  0  0  0  0  0
  -27.1356    0.2359   28.5352 C   0  0  0  0  0  0  0  0  0  0  0  0
  -26.8745    1.2825   29.3982 C   0  0  0  0  0  0  0  0  0  0  0  0
  -27.5070    1.2380   30.6295 C   0  0  0  0  0  0  0  0  0  0  0  0
  -28.3269    0.1637   30.9240 C   0  0  0  0  0  0  0  0  0  0  0  0
  -26.4007    0.2985   27.2217 C   0  0  0  0  0  0  0  0  0  0  0  0
  -25.4798    1.3674   27.0717 C   0  0  0  0  0  0  0  0  0  0  0  0
  -25.2995    2.3671   27.9991 C   0  0  0  0  0  0  0  0  0  0  0  0
  -25.9363    2.3457   29.1231 C   0  0  0  0  0  0  0  0  0  0  0  0
  -24.3236    3.4481   27.5786 C   0  0  0  0  0  0  0  0  0  0  0  0
  -25.7010    3.4583   30.1630 C   0  0  0  0  0  0  0  0  0  0  0  0
  -25.9184    4.6820   29.8617 O   0  0  0  0  0  0  0  0  0  0  0  0
  -24.9745    3.1341   31.2321 O   0  0  0  0  0  0  0  0  0  0  0  0
  -24.2793    3.9304   26.6925 O   0  0  0  0  0  0  0  0  0  0  0  0
  9 11  1  0
 10 12  1  0
 12 13  2  0
 12 14  1  0
 11 15  2  0
  4 10  2  0
 10  9  1  0
  9  8  2  0
  8  7  1  0
  7  3  2  0
  1  2  2  0
  2  6  1  0
  6  5  2  0
  5  4  1  0
  4  3  1  0
  3  1  1  0
M  END

$$$$
