No_3673-gen_results/8p0m/2024-11-27-11-27-31/
     RDKit          3D

 17 17  0  0  0  0  0  0  0  0999 V2000
  -28.0162   -0.8135   28.8779 C   0  0  0  0  0  0  0  0  0  0  0  0
  -27.0636   -0.1190   28.6079 C   0  0  0  0  0  0  0  0  0  0  0  0
  -25.7647   -0.3897   29.0360 C   0  0  0  0  0  0  0  0  0  0  0  0
  -24.5516    0.4058   28.7646 C   0  0  0  0  0  0  0  0  0  0  0  0
  -24.6957    1.4480   27.7988 C   0  0  0  0  0  0  0  0  0  0  0  0
  -25.9755    1.7250   27.3077 C   0  0  0  0  0  0  0  0  0  0  0  0
  -27.0718    1.0134   27.6535 C   0  0  0  0  0  0  0  0  0  0  0  0
  -29.2260   -0.0677   29.3149 C   0  0  0  0  0  0  0  0  0  0  0  0
  -30.4169   -0.7017   29.1423 N   0  0  0  0  0  0  0  0  0  0  0  0
  -23.4870    2.1874   27.4849 C   0  0  0  0  0  0  0  0  0  0  0  0
  -23.5540    3.1352   26.6107 N   0  0  0  0  0  0  0  0  0  0  0  0
  -22.3226    1.8607   27.8818 O   0  0  0  0  0  0  0  0  0  0  0  0
  -30.8880   -1.5544   30.0284 C   0  0  0  0  0  0  0  0  0  0  0  0
  -31.9695   -2.4460   29.6718 C   0  0  0  0  0  0  0  0  0  0  0  0
  -31.2236   -0.4771   28.0134 C   0  0  0  0  0  0  0  0  0  0  0  0
  -32.1679   -1.2476   27.6274 O   0  0  0  0  0  0  0  0  0  0  0  0
  -30.6112    0.9056   26.7691 Br  0  0  0  0  0  0  0  0  0  0  0  0
  1  8  1  0
  8  9  1  0
  5 10  1  0
 10 11  1  0
 10 12  2  0
  9 13  1  0
 13 14  2  0
  9 15  1  0
 15 16  2  0
 15 17  1  0
  1  2  1  0
  2  3  2  0
  3  4  1  0
  4  5  2  0
  5  6  1  0
  6  7  2  0
  7  2  1  0
M  END

$$$$
