No_3631-gen_results/8p0m/2024-11-27-11-27-31/
     RDKit          3D

 18 19  0  0  0  0  0  0  0  0999 V2000
  -28.1229   -1.3353   28.4874 O   0  0  0  0  0  0  0  0  0  0  0  0
  -27.0637   -0.8242   28.8687 C   0  0  0  0  0  0  0  0  0  0  0  0
  -25.9464   -1.0396   28.8492 C   0  0  0  0  0  0  0  0  0  0  0  0
  -25.3522   -2.2524   28.5471 C   0  0  0  0  0  0  0  0  0  0  0  0
  -27.2573    0.6208   29.4840 N   0  0  0  0  0  0  0  0  0  0  0  0
  -26.4660    1.3936   29.6413 C   0  0  0  0  0  0  0  0  0  0  0  0
  -24.7154   -0.1410   29.2965 C   0  0  0  0  0  0  0  0  0  0  0  0
  -25.1088    1.1242   29.6841 C   0  0  0  0  0  0  0  0  0  0  0  0
  -24.9448   -3.2043   29.3973 N   0  0  0  0  0  0  0  0  0  0  0  0
  -24.6010   -4.4569   29.0050 C   0  0  0  0  0  0  0  0  0  0  0  0
  -23.3080   -0.4830   29.2229 C   0  0  0  0  0  0  0  0  0  0  0  0
  -22.3058    0.4601   28.9345 C   0  0  0  0  0  0  0  0  0  0  0  0
  -22.6991    1.6748   28.4297 C   0  0  0  0  0  0  0  0  0  0  0  0
  -23.8333    2.4154   28.6096 C   0  0  0  0  0  0  0  0  0  0  0  0
  -24.7636    1.8864   29.1416 C   0  0  0  0  0  0  0  0  0  0  0  0
  -25.3056    3.3818   29.2884 C   0  0  0  0  0  0  0  0  0  0  0  0
  -24.0240    3.7705   27.1828 Cl  0  0  0  0  0  0  0  0  0  0  0  0
  -25.9165    3.9039   30.0186 C   0  0  0  0  0  0  0  0  0  0  0  0
  1  2  2  0
  2  3  1  0
  3  4  1  0
  2  5  1  0
  3  7  1  0
  6  8  1  0
  4  9  1  0
  9 10  1  0
  7 11  1  0
 11 12  2  0
 12 13  1  0
 13 14  2  0
  8 15  1  0
 14 15  1  0
 15 16  1  0
 14 17  1  0
 16 18  2  0
  7  8  1  0
  6  5  1  0
M  END

$$$$
