No_3259-gen_results/8p0m/2024-11-27-11-27-31/
     RDKit          3D

 30 33  0  0  0  0  0  0  0  0999 V2000
  -28.0162   -0.8135   28.8779 C   0  0  0  0  0  0  0  0  0  0  0  0
  -28.4690   -0.7850   29.8287 C   0  0  0  0  0  0  0  0  0  0  0  0
  -26.5042   -0.7777   28.8766 C   0  0  0  0  0  0  0  0  0  0  0  0
  -25.8103   -0.8531   30.1028 C   0  0  0  0  0  0  0  0  0  0  0  0
  -27.9906   -0.8916   31.2257 C   0  0  0  0  0  0  0  0  0  0  0  0
  -24.3976   -0.8364   30.1775 C   0  0  0  0  0  0  0  0  0  0  0  0
  -26.5754   -0.8899   31.2661 C   0  0  0  0  0  0  0  0  0  0  0  0
  -23.7708   -0.9176   31.0960 C   0  0  0  0  0  0  0  0  0  0  0  0
  -23.6556   -0.7144   28.8858 C   0  0  0  0  0  0  0  0  0  0  0  0
  -22.2519   -0.5749   28.9404 C   0  0  0  0  0  0  0  0  0  0  0  0
  -22.2935   -0.7627   31.3088 C   0  0  0  0  0  0  0  0  0  0  0  0
  -21.6026   -0.5853   30.0994 C   0  0  0  0  0  0  0  0  0  0  0  0
  -30.3088   -0.7632   29.8352 Cl  0  0  0  0  0  0  0  0  0  0  0  0
  -25.8255   -0.7734   27.7508 O   0  0  0  0  0  0  0  0  0  0  0  0
  -24.5242   -0.6528   27.7255 C   0  0  0  0  0  0  0  0  0  0  0  0
  -28.7400   -0.9135   32.3099 O   0  0  0  0  0  0  0  0  0  0  0  0
  -29.8382   -0.3733   32.4952 C   0  0  0  0  0  0  0  0  0  0  0  0
  -30.7593   -0.0318   32.9001 C   0  0  0  0  0  0  0  0  0  0  0  0
  -31.8104    0.5884   33.3369 C   0  0  0  0  0  0  0  0  0  0  0  0
  -32.6659    0.4009   33.8586 F   0  0  0  0  0  0  0  0  0  0  0  0
  -31.9393    1.8428   32.4329 C   0  0  0  0  0  0  0  0  0  0  0  0
  -31.0995    2.7497   32.3358 C   0  0  0  0  0  0  0  0  0  0  0  0
  -30.7858    3.4909   33.5555 C   0  0  0  0  0  0  0  0  0  0  0  0
  -29.6562    4.2691   33.5223 C   0  0  0  0  0  0  0  0  0  0  0  0
  -30.4006    3.1905   31.1742 C   0  0  0  0  0  0  0  0  0  0  0  0
  -29.3109    4.0974   31.1592 C   0  0  0  0  0  0  0  0  0  0  0  0
  -28.9905    4.7370   32.4016 C   0  0  0  0  0  0  0  0  0  0  0  0
  -27.8914    5.6835   32.4068 C   0  0  0  0  0  0  0  0  0  0  0  0
  -27.8494    6.6628   32.9424 C   0  0  0  0  0  0  0  0  0  0  0  0
  -27.1885    7.6520   33.0101 C   0  0  0  0  0  0  0  0  0  0  0  0
  4  6  1  0
  2 13  1  0
  3 14  1  0
  9 15  1  0
 14 15  1  0
  5 16  1  0
 16 17  1  0
 17 18  3  0
 18 19  1  0
 19 20  1  0
 19 21  1  0
 21 22  1  0
 27 28  1  0
 28 29  2  3
 29 30  1  0
  6  8  2  0
  8 11  1  0
 11 12  2  0
 12 10  1  0
 10  9  2  0
  9  6  1  0
 22 23  2  0
 23 24  1  0
 24 27  2  0
 27 26  1  0
 26 25  2  0
 25 22  1  0
  1  2  2  0
  2  5  1  0
  5  7  2  0
  7  4  1  0
  4  3  2  0
  3  1  1  0
M  END

$$$$
