No_3632-gen_results/8p0m/2024-11-27-11-27-31/
     RDKit          3D

 15 16  0  0  0  0  0  0  0  0999 V2000
  -28.0162   -0.8135   28.8779 C   0  0  0  0  0  0  0  0  0  0  0  0
  -27.0636   -0.1189   28.6079 C   0  0  0  0  0  0  0  0  0  0  0  0
  -26.9716    0.7139   27.5060 C   0  0  0  0  0  0  0  0  0  0  0  0
  -25.8205    1.4909   27.1160 C   0  0  0  0  0  0  0  0  0  0  0  0
  -24.6562    1.4242   27.9180 C   0  0  0  0  0  0  0  0  0  0  0  0
  -24.6847    0.5901   29.0659 C   0  0  0  0  0  0  0  0  0  0  0  0
  -25.8099   -0.1265   29.3338 C   0  0  0  0  0  0  0  0  0  0  0  0
  -29.1935   -0.1896   29.0164 N   0  0  0  0  0  0  0  0  0  0  0  0
  -23.4634    2.1759   27.6079 C   0  0  0  0  0  0  0  0  0  0  0  0
  -23.6602    3.2869   27.1322 F   0  0  0  0  0  0  0  0  0  0  0  0
  -22.6408    2.3995   28.6843 F   0  0  0  0  0  0  0  0  0  0  0  0
  -22.6392    1.4942   26.7562 F   0  0  0  0  0  0  0  0  0  0  0  0
  -29.5080    0.7622   28.3576 C   0  0  0  0  0  0  0  0  0  0  0  0
  -28.4510    1.3146   27.5042 C   0  0  0  0  0  0  0  0  0  0  0  0
  -30.2892   -0.9431   29.7771 C   0  0  0  0  0  0  0  0  0  0  0  0
  1  8  1  0
  5  9  1  0
  9 10  1  0
  9 11  1  0
  9 12  1  0
  8 13  1  0
  3 14  1  0
  8 15  1  0
  1  2  1  0
 14 13  1  0
  2  3  2  0
  3  4  1  0
  4  5  2  0
  5  6  1  0
  6  7  2  0
  7  2  1  0
M  END

$$$$
