No_3458-gen_results/8p0m/2024-11-27-11-27-31/
     RDKit          3D

 22 24  0  0  0  0  0  0  0  0999 V2000
  -28.0162   -0.8135   28.8779 C   0  0  0  0  0  0  0  0  0  0  0  0
  -28.4690   -0.7850   29.8287 C   0  0  0  0  0  0  0  0  0  0  0  0
  -28.1960    0.3478   28.0550 C   0  0  0  0  0  0  0  0  0  0  0  0
  -29.0191    1.3501   28.3782 C   0  0  0  0  0  0  0  0  0  0  0  0
  -28.3170   -1.9812   30.8560 C   0  0  0  0  0  0  0  0  0  0  0  0
  -29.5950    1.2859   29.6049 C   0  0  0  0  0  0  0  0  0  0  0  0
  -29.3465    0.2093   30.3749 C   0  0  0  0  0  0  0  0  0  0  0  0
  -29.2155   -2.9170   30.8674 N   0  0  0  0  0  0  0  0  0  0  0  0
  -28.8997   -4.1543   30.4626 C   0  0  0  0  0  0  0  0  0  0  0  0
  -30.0445   -5.1130   30.2764 C   0  0  0  0  0  0  0  0  0  0  0  0
  -30.9604   -4.7115   31.0429 C   0  0  0  0  0  0  0  0  0  0  0  0
  -30.4853   -3.0830   31.5071 C   0  0  0  0  0  0  0  0  0  0  0  0
  -27.5527    0.3273   26.7899 O   0  0  0  0  0  0  0  0  0  0  0  0
  -26.8693    1.4786   26.3850 C   0  0  0  0  0  0  0  0  0  0  0  0
  -25.5630    1.1323   25.9573 C   0  0  0  0  0  0  0  0  0  0  0  0
  -24.4480    1.9715   26.4204 C   0  0  0  0  0  0  0  0  0  0  0  0
  -24.7629    3.2524   26.8420 C   0  0  0  0  0  0  0  0  0  0  0  0
  -26.1339    3.6251   27.0915 C   0  0  0  0  0  0  0  0  0  0  0  0
  -27.1182    2.6779   26.9625 C   0  0  0  0  0  0  0  0  0  0  0  0
  -27.3108   -1.9407   31.5888 O   0  0  0  0  0  0  0  0  0  0  0  0
  -30.5093    2.3731   30.0802 C   0  0  0  0  0  0  0  0  0  0  0  0
  -30.3553    2.9328   31.0319 O   0  0  0  0  0  0  0  0  0  0  0  0
  2  5  1  0
  5  8  1  0
  8  9  1  0
  9 10  2  0
 10 11  1  0
  8 12  1  0
 11 12  1  0
  3 13  1  0
 13 14  1  0
  5 20  2  0
  6 21  1  0
 21 22  2  0
 14 15  2  0
 15 16  1  0
 16 17  2  0
 17 18  1  0
 18 19  2  0
 19 14  1  0
  1  2  2  0
  2  7  1  0
  7  6  2  0
  6  4  1  0
  4  3  2  0
  3  1  1  0
M  END

$$$$
