No_3893-gen_results/8p0m/2024-11-27-11-27-31/
     RDKit          3D

 13 14  0  0  0  0  0  0  0  0999 V2000
  -28.0162   -0.8135   28.8779 C   0  0  0  0  0  0  0  0  0  0  0  0
  -28.4690   -0.7850   29.8287 C   0  0  0  0  0  0  0  0  0  0  0  0
  -26.5042   -0.7777   28.8766 C   0  0  0  0  0  0  0  0  0  0  0  0
  -25.8103   -0.8531   30.1028 C   0  0  0  0  0  0  0  0  0  0  0  0
  -30.0136   -0.8410   29.8508 C   0  0  0  0  0  0  0  0  0  0  0  0
  -26.5670   -0.8850   31.2517 C   0  0  0  0  0  0  0  0  0  0  0  0
  -27.9411   -0.9069   31.1850 C   0  0  0  0  0  0  0  0  0  0  0  0
  -30.6563   -1.6921   30.1809 O   0  0  0  0  0  0  0  0  0  0  0  0
  -30.6002    0.3117   29.2879 N   0  0  0  0  0  0  0  0  0  0  0  0
  -29.9171    1.4676   28.8574 C   0  0  0  0  0  0  0  0  0  0  0  0
  -30.7760    2.3080   28.2352 C   0  0  0  0  0  0  0  0  0  0  0  0
  -32.0306    2.0645   27.9653 C   0  0  0  0  0  0  0  0  0  0  0  0
  -31.9240    0.3213   28.8713 C   0  0  0  0  0  0  0  0  0  0  0  0
  2  5  1  0
  5  8  2  0
  5  9  1  0
  9 10  1  0
 10 11  2  0
 11 12  1  0
  9 13  1  0
 12 13  1  0
  1  2  2  0
  2  7  1  0
  7  6  2  0
  6  4  1  0
  4  3  2  0
  3  1  1  0
M  END

$$$$
