No_3376-gen_results/8p0m/2024-11-27-11-27-31/
     RDKit          3D

 35 39  0  0  0  0  0  0  0  0999 V2000
  -28.1229   -1.3353   28.4874 O   0  0  0  0  0  0  0  0  0  0  0  0
  -27.4806   -0.4044   28.7094 C   0  0  0  0  0  0  0  0  0  0  0  0
  -26.3804   -0.0867   27.9394 C   0  0  0  0  0  0  0  0  0  0  0  0
  -27.6664    0.4468   29.8988 N   0  0  0  0  0  0  0  0  0  0  0  0
  -25.1773   -0.4388   28.3946 C   0  0  0  0  0  0  0  0  0  0  0  0
  -26.5259    0.6036   26.6867 C   0  0  0  0  0  0  0  0  0  0  0  0
  -24.8099   -1.1180   29.5646 C   0  0  0  0  0  0  0  0  0  0  0  0
  -28.7694    0.1525   30.7242 C   0  0  0  0  0  0  0  0  0  0  0  0
  -23.5473   -1.4995   29.8975 C   0  0  0  0  0  0  0  0  0  0  0  0
  -22.5110   -0.8915   29.1449 C   0  0  0  0  0  0  0  0  0  0  0  0
  -22.7033   -0.0226   28.0922 C   0  0  0  0  0  0  0  0  0  0  0  0
  -23.9963    0.1988   27.7089 C   0  0  0  0  0  0  0  0  0  0  0  0
  -24.2287    0.9677   26.6681 N   0  0  0  0  0  0  0  0  0  0  0  0
  -25.4093    1.2232   26.1125 C   0  0  0  0  0  0  0  0  0  0  0  0
  -26.8480    1.5378   30.2089 C   0  0  0  0  0  0  0  0  0  0  0  0
  -26.0057    1.3921   31.1634 C   0  0  0  0  0  0  0  0  0  0  0  0
  -25.8184    2.1051   32.0562 C   0  0  0  0  0  0  0  0  0  0  0  0
  -26.0628    3.2719   32.3241 C   0  0  0  0  0  0  0  0  0  0  0  0
  -25.8606    4.1119   33.4817 C   0  0  0  0  0  0  0  0  0  0  0  0
  -27.0168    2.7480   29.4336 C   0  0  0  0  0  0  0  0  0  0  0  0
  -26.6842    4.1640   31.2789 C   0  0  0  0  0  0  0  0  0  0  0  0
  -27.1256    3.8529   30.0980 C   0  0  0  0  0  0  0  0  0  0  0  0
  -26.8195    3.9197   34.5938 C   0  0  0  0  0  0  0  0  0  0  0  0
  -25.6049    5.6102   33.2371 C   0  0  0  0  0  0  0  0  0  0  0  0
  -25.1820    6.3557   34.0923 C   0  0  0  0  0  0  0  0  0  0  0  0
  -25.0554    7.7568   33.7744 C   0  0  0  0  0  0  0  0  0  0  0  0
  -25.2066    8.1987   32.4805 C   0  0  0  0  0  0  0  0  0  0  0  0
  -25.5478    7.3038   31.5138 C   0  0  0  0  0  0  0  0  0  0  0  0
  -25.7425    5.9795   31.8954 C   0  0  0  0  0  0  0  0  0  0  0  0
  -26.8225    5.4618   31.3271 N   0  0  0  0  0  0  0  0  0  0  0  0
  -25.6300    7.8018   30.1324 C   0  0  0  0  0  0  0  0  0  0  0  0
  -24.6557    8.4529   29.5637 C   0  0  0  0  0  0  0  0  0  0  0  0
  -24.6875    8.7503   28.1296 C   0  0  0  0  0  0  0  0  0  0  0  0
  -25.6470    8.0597   27.3591 C   0  0  0  0  0  0  0  0  0  0  0  0
  -26.6046    7.2934   28.0010 C   0  0  0  0  0  0  0  0  0  0  0  0
  1  2  2  0
  2  3  1  0
  2  4  1  0
  4  8  1  0
  4 15  1  0
 15 16  2  0
 16 17  1  0
 17 18  2  0
 18 19  1  0
 15 20  1  0
 18 21  1  0
 20 22  1  0
 21 22  2  0
 19 23  1  0
 19 24  1  0
 21 30  1  0
 29 30  1  0
 28 31  1  0
 31 32  2  3
 32 33  1  0
 33 34  2  3
 34 35  1  0
  3  5  2  0
 12 13  2  0
 13 14  1  0
 14  6  2  0
  6  3  1  0
  5  7  1  0
  7  9  2  0
  9 10  1  0
 10 11  2  0
 11 12  1  0
 12  5  1  0
 24 25  2  0
 25 26  1  0
 26 27  2  0
 27 28  1  0
 28 29  2  0
 29 24  1  0
M  END

$$$$
