No_3252-gen_results/8p0m/2024-11-27-11-27-31/
     RDKit          3D

 23 25  0  0  0  0  0  0  0  0999 V2000
  -28.0162   -0.8135   28.8779 C   0  0  0  0  0  0  0  0  0  0  0  0
  -28.4690   -0.7850   29.8287 C   0  0  0  0  0  0  0  0  0  0  0  0
  -26.5042   -0.7777   28.8766 C   0  0  0  0  0  0  0  0  0  0  0  0
  -25.8103   -0.8531   30.1028 C   0  0  0  0  0  0  0  0  0  0  0  0
  -27.9906   -0.8916   31.2257 C   0  0  0  0  0  0  0  0  0  0  0  0
  -26.6042   -0.8676   31.2652 C   0  0  0  0  0  0  0  0  0  0  0  0
  -30.2937   -0.8377   29.8355 Cl  0  0  0  0  0  0  0  0  0  0  0  0
  -24.3700   -0.8208   30.1393 C   0  0  0  0  0  0  0  0  0  0  0  0
  -23.6623   -1.3275   30.7489 C   0  0  0  0  0  0  0  0  0  0  0  0
  -23.7481    0.1451   29.1412 C   0  0  0  0  0  0  0  0  0  0  0  0
  -22.3515    0.2299   29.0896 C   0  0  0  0  0  0  0  0  0  0  0  0
  -22.2252   -1.2929   30.8975 C   0  0  0  0  0  0  0  0  0  0  0  0
  -21.7292    1.0967   28.0828 C   0  0  0  0  0  0  0  0  0  0  0  0
  -21.5729   -0.5198   29.9860 C   0  0  0  0  0  0  0  0  0  0  0  0
  -20.6223    1.6323   28.2137 N   0  0  0  0  0  0  0  0  0  0  0  0
  -22.7254    1.6383   26.7729 Cl  0  0  0  0  0  0  0  0  0  0  0  0
  -25.8512   -0.7115   27.7236 O   0  0  0  0  0  0  0  0  0  0  0  0
  -26.3067    0.2193   26.6898 C   0  0  0  0  0  0  0  0  0  0  0  0
  -25.9871   -0.1073   25.3942 C   0  0  0  0  0  0  0  0  0  0  0  0
  -26.8521    1.4605   26.9874 C   0  0  0  0  0  0  0  0  0  0  0  0
  -27.1811    2.3028   25.9971 C   0  0  0  0  0  0  0  0  0  0  0  0
  -26.3317    0.7117   24.3527 C   0  0  0  0  0  0  0  0  0  0  0  0
  -26.9401    1.9216   24.6596 C   0  0  0  0  0  0  0  0  0  0  0  0
  2  7  1  0
  4  8  1  0
 11 13  1  0
 13 15  2  0
 13 16  1  0
  3 17  1  0
 17 18  1  0
  8  9  2  0
  9 12  1  0
 12 14  2  0
 14 11  1  0
 11 10  2  0
 10  8  1  0
 18 19  2  0
 19 22  1  0
 22 23  2  0
 23 21  1  0
 21 20  2  0
 20 18  1  0
  1  2  2  0
  2  5  1  0
  5  6  2  0
  6  4  1  0
  4  3  2  0
  3  1  1  0
M  END

$$$$
