No_3214-gen_results/8p0m/2024-11-27-11-27-31/
     RDKit          3D

 17 19  0  0  0  0  0  0  0  0999 V2000
  -28.1229   -1.3353   28.4874 O   0  0  0  0  0  0  0  0  0  0  0  0
  -27.4806   -0.4044   28.7094 C   0  0  0  0  0  0  0  0  0  0  0  0
  -26.3804   -0.0867   27.9394 C   0  0  0  0  0  0  0  0  0  0  0  0
  -27.6664    0.4468   29.8988 N   0  0  0  0  0  0  0  0  0  0  0  0
  -25.8048    1.1658   28.0750 C   0  0  0  0  0  0  0  0  0  0  0  0
  -25.9731    1.9067   29.2602 C   0  0  0  0  0  0  0  0  0  0  0  0
  -27.0015    1.5416   30.1029 C   0  0  0  0  0  0  0  0  0  0  0  0
  -24.6491    1.5850   27.1967 C   0  0  0  0  0  0  0  0  0  0  0  0
  -23.6190    1.7112   27.1837 C   0  0  0  0  0  0  0  0  0  0  0  0
  -22.8281    1.4049   28.4897 C   0  0  0  0  0  0  0  0  0  0  0  0
  -21.3929    1.3245   28.4089 C   0  0  0  0  0  0  0  0  0  0  0  0
  -20.8871    0.8195   27.5657 C   0  0  0  0  0  0  0  0  0  0  0  0
  -25.3413    1.8712   25.7853 C   0  0  0  0  0  0  0  0  0  0  0  0
  -21.2528    1.4015   26.2692 C   0  0  0  0  0  0  0  0  0  0  0  0
  -22.6171    1.5427   26.0994 C   0  0  0  0  0  0  0  0  0  0  0  0
  -23.1269    1.7401   24.9056 N   0  0  0  0  0  0  0  0  0  0  0  0
  -24.4748    1.9112   24.7708 C   0  0  0  0  0  0  0  0  0  0  0  0
  1  2  2  0
  2  3  1  0
  2  4  1  0
  3  5  1  0
  6  7  1  0
  5  8  1  0
  5  6  1  0
  7  4  1  0
  9 10  2  0
 10 11  1  0
 11 12  2  0
 12 14  1  0
 14 15  2  0
  8  9  1  0
  9 15  1  0
 15 16  1  0
 16 17  2  0
 17 13  1  0
 13  8  2  0
M  END

$$$$
