No_3162-gen_results/8p0m/2024-11-27-11-27-31/
     RDKit          3D

 22 23  0  0  0  0  0  0  0  0999 V2000
  -28.1229   -1.3353   28.4874 O   0  0  0  0  0  0  0  0  0  0  0  0
  -27.4806   -0.4044   28.7094 C   0  0  0  0  0  0  0  0  0  0  0  0
  -26.3804   -0.0867   27.9394 C   0  0  0  0  0  0  0  0  0  0  0  0
  -27.6664    0.4468   29.8988 N   0  0  0  0  0  0  0  0  0  0  0  0
  -25.1773   -0.4388   28.3946 C   0  0  0  0  0  0  0  0  0  0  0  0
  -26.5259    0.6036   26.6867 C   0  0  0  0  0  0  0  0  0  0  0  0
  -24.8099   -1.1180   29.5646 C   0  0  0  0  0  0  0  0  0  0  0  0
  -28.7694    0.1525   30.7242 C   0  0  0  0  0  0  0  0  0  0  0  0
  -23.5473   -1.4995   29.8975 C   0  0  0  0  0  0  0  0  0  0  0  0
  -22.5110   -0.8915   29.1449 C   0  0  0  0  0  0  0  0  0  0  0  0
  -22.7033   -0.0226   28.0922 C   0  0  0  0  0  0  0  0  0  0  0  0
  -23.9963    0.1988   27.7089 C   0  0  0  0  0  0  0  0  0  0  0  0
  -24.0536    1.0247   26.6365 N   0  0  0  0  0  0  0  0  0  0  0  0
  -25.3621    1.2376   26.1153 C   0  0  0  0  0  0  0  0  0  0  0  0
  -26.8464    1.5390   30.2107 C   0  0  0  0  0  0  0  0  0  0  0  0
  -27.4812    2.7679   30.0139 C   0  0  0  0  0  0  0  0  0  0  0  0
  -26.5911    3.7746   29.6124 C   0  0  0  0  0  0  0  0  0  0  0  0
  -25.7120    3.9580   28.9196 Cl  0  0  0  0  0  0  0  0  0  0  0  0
  -26.2312    4.5009   30.8616 F   0  0  0  0  0  0  0  0  0  0  0  0
  -27.7887    0.9429   26.1456 C   0  0  0  0  0  0  0  0  0  0  0  0
  -28.4631    1.8031   26.5123 C   0  0  0  0  0  0  0  0  0  0  0  0
  -29.8030    2.1597   26.0108 C   0  0  0  0  0  0  0  0  0  0  0  0
  1  2  2  0
  2  3  1  0
  2  4  1  0
  3  5  1  0
  3  6  1  0
  4  8  1  0
 12 13  1  0
  6 14  1  0
 13 14  1  0
  4 15  1  0
 15 16  1  0
 16 17  1  0
 17 18  1  0
 17 19  1  0
  6 20  1  0
 20 21  2  3
 21 22  1  0
  5  7  2  0
  7  9  1  0
  9 10  2  0
 10 11  1  0
 11 12  2  0
 12  5  1  0
M  END

$$$$
