No_3209-gen_results/8p0m/2024-11-27-11-27-31/
     RDKit          3D

 22 24  0  0  0  0  0  0  0  0999 V2000
  -28.0162   -0.8135   28.8779 C   0  0  0  0  0  0  0  0  0  0  0  0
  -28.4690   -0.7850   29.8287 C   0  0  0  0  0  0  0  0  0  0  0  0
  -26.5042   -0.7777   28.8766 C   0  0  0  0  0  0  0  0  0  0  0  0
  -25.6540   -0.6597   27.7191 C   0  0  0  0  0  0  0  0  0  0  0  0
  -27.9180   -0.9374   31.1824 C   0  0  0  0  0  0  0  0  0  0  0  0
  -26.5423   -0.9399   31.2606 C   0  0  0  0  0  0  0  0  0  0  0  0
  -25.7832   -0.8935   30.1201 C   0  0  0  0  0  0  0  0  0  0  0  0
  -25.2134    0.6923   27.3830 C   0  0  0  0  0  0  0  0  0  0  0  0
  -23.9202    0.9215   27.7698 C   0  0  0  0  0  0  0  0  0  0  0  0
  -23.2576    2.1194   27.2629 C   0  0  0  0  0  0  0  0  0  0  0  0
  -21.9130    2.4079   27.6415 C   0  0  0  0  0  0  0  0  0  0  0  0
  -23.0377    0.2081   28.6292 C   0  0  0  0  0  0  0  0  0  0  0  0
  -21.7392    0.4024   28.9471 C   0  0  0  0  0  0  0  0  0  0  0  0
  -21.1694    1.5296   28.3989 C   0  0  0  0  0  0  0  0  0  0  0  0
  -25.9381    1.5008   26.5679 C   0  0  0  0  0  0  0  0  0  0  0  0
  -26.2587    1.0773   25.3167 C   0  0  0  0  0  0  0  0  0  0  0  0
  -27.3590    0.3527   25.1275 C   0  0  0  0  0  0  0  0  0  0  0  0
  -28.0245    0.1532   23.9086 C   0  0  0  0  0  0  0  0  0  0  0  0
  -29.3527    0.4652   23.9868 C   0  0  0  0  0  0  0  0  0  0  0  0
  -30.1993    0.1671   25.0472 C   0  0  0  0  0  0  0  0  0  0  0  0
  -29.5214    0.3105   26.3212 C   0  0  0  0  0  0  0  0  0  0  0  0
  -28.2528    0.4845   26.3383 C   0  0  0  0  0  0  0  0  0  0  0  0
  3  4  1  0
  4  8  1  0
  8  9  1  0
  8 15  1  0
 15 16  1  0
 16 17  1  0
 17 18  2  0
 18 19  1  0
 19 20  2  0
 20 21  1  0
 21 22  2  0
 22 17  1  0
  9 10  2  0
 10 11  1  0
 11 14  2  0
 14 13  1  0
 13 12  2  0
 12  9  1  0
  1  2  2  0
  2  5  1  0
  5  6  2  0
  6  7  1  0
  7  3  2  0
  3  1  1  0
M  END

$$$$
