No_333-gen_results/8p0m/2024-11-27-11-27-31/
     RDKit          3D

 14 14  0  0  0  0  0  0  0  0999 V2000
  -28.0544   -1.0498   28.7246 N   0  0  0  0  0  0  0  0  0  0  0  0
  -26.9659   -0.4722   28.7709 C   0  0  0  0  0  0  0  0  0  0  0  0
  -26.8423    0.7388   29.2341 C   0  0  0  0  0  0  0  0  0  0  0  0
  -25.5486    1.4687   29.2980 C   0  0  0  0  0  0  0  0  0  0  0  0
  -24.3901    0.7986   28.8486 C   0  0  0  0  0  0  0  0  0  0  0  0
  -23.1202    1.3895   28.8509 C   0  0  0  0  0  0  0  0  0  0  0  0
  -25.6899   -1.1556   28.3418 C   0  0  0  0  0  0  0  0  0  0  0  0
  -24.4591   -0.5379   28.3730 C   0  0  0  0  0  0  0  0  0  0  0  0
  -22.3063    1.6487   28.2142 N   0  0  0  0  0  0  0  0  0  0  0  0
  -29.2291   -0.4699   29.1934 C   0  0  0  0  0  0  0  0  0  0  0  0
  -30.3507   -1.2234   29.2250 C   0  0  0  0  0  0  0  0  0  0  0  0
  -31.1782   -1.0107   28.2447 O   0  0  0  0  0  0  0  0  0  0  0  0
  -30.6021   -2.1610   30.0560 O   0  0  0  0  0  0  0  0  0  0  0  0
  -29.3000    0.7202   29.6167 O   0  0  0  0  0  0  0  0  0  0  0  0
  5  6  1  0
  6  9  3  0
  1 10  1  0
 10 11  1  0
 11 12  1  0
 11 13  2  0
 10 14  2  0
  1  2  1  0
  2  3  2  0
  3  4  1  0
  4  5  2  0
  5  8  1  0
  8  7  2  0
  7  2  1  0
M  END

$$$$
