No_385-gen_results/8p0m/2024-11-27-11-27-31/
     RDKit          3D

 14 15  0  0  0  0  0  0  0  0999 V2000
  -28.0162   -0.8135   28.8779 C   0  0  0  0  0  0  0  0  0  0  0  0
  -28.4690   -0.7850   29.8287 C   0  0  0  0  0  0  0  0  0  0  0  0
  -28.1816    0.4277   28.1134 C   0  0  0  0  0  0  0  0  0  0  0  0
  -29.3519    0.6041   27.4037 C   0  0  0  0  0  0  0  0  0  0  0  0
  -30.4853    0.3938   28.3041 C   0  0  0  0  0  0  0  0  0  0  0  0
  -29.9642   -1.0433   30.1728 C   0  0  0  0  0  0  0  0  0  0  0  0
  -31.6804    0.9334   27.7051 C   0  0  0  0  0  0  0  0  0  0  0  0
  -30.6218   -0.7648   29.4347 C   0  0  0  0  0  0  0  0  0  0  0  0
  -29.3846    0.9604   26.2444 O   0  0  0  0  0  0  0  0  0  0  0  0
  -32.8226    0.6027   27.9266 C   0  0  0  0  0  0  0  0  0  0  0  0
  -33.9566    1.2663   27.4302 C   0  0  0  0  0  0  0  0  0  0  0  0
  -33.7217    2.3905   26.6111 C   0  0  0  0  0  0  0  0  0  0  0  0
  -32.4507    2.7994   26.2997 C   0  0  0  0  0  0  0  0  0  0  0  0
  -31.3783    2.1661   26.8779 C   0  0  0  0  0  0  0  0  0  0  0  0
  1  2  1  0
  1  3  1  0
  3  4  1  0
  4  5  1  0
  2  6  1  0
  5  7  1  0
  5  8  1  0
  6  8  2  0
  4  9  2  0
  7 10  2  0
 10 11  1  0
 11 12  2  0
 12 13  1  0
 13 14  2  0
 14  7  1  0
M  END

$$$$
