No_350-gen_results/8p0m/2024-11-27-11-27-31/
     RDKit          3D

 13 13  0  0  0  0  0  0  0  0999 V2000
  -28.1229   -1.3353   28.4874 O   0  0  0  0  0  0  0  0  0  0  0  0
  -27.4806   -0.4044   28.7094 C   0  0  0  0  0  0  0  0  0  0  0  0
  -26.3804   -0.0867   27.9394 C   0  0  0  0  0  0  0  0  0  0  0  0
  -27.6664    0.4468   29.8988 N   0  0  0  0  0  0  0  0  0  0  0  0
  -25.8048    1.1658   28.0750 C   0  0  0  0  0  0  0  0  0  0  0  0
  -26.0441    1.9125   29.2704 C   0  0  0  0  0  0  0  0  0  0  0  0
  -27.0331    1.5567   30.1007 C   0  0  0  0  0  0  0  0  0  0  0  0
  -25.3487    3.0291   29.4135 F   0  0  0  0  0  0  0  0  0  0  0  0
  -24.6369    1.6047   27.2158 C   0  0  0  0  0  0  0  0  0  0  0  0
  -23.2750    1.4291   27.5951 C   0  0  0  0  0  0  0  0  0  0  0  0
  -22.8404    0.8061   28.7894 C   0  0  0  0  0  0  0  0  0  0  0  0
  -21.5291    0.5204   28.8633 N   0  0  0  0  0  0  0  0  0  0  0  0
  -24.9907    2.1154   25.9354 C   0  0  0  0  0  0  0  0  0  0  0  0
  1  2  2  0
  2  3  1  0
  2  4  1  0
  5  6  1  0
  4  7  1  0
  6  7  1  0
  6  8  1  0
  5  9  1  0
  9 10  1  0
 10 11  1  0
 11 12  2  0
  9 13  1  0
  3  5  1  0
M  END

$$$$
