No_3230-gen_results/8p0m/2024-11-27-11-27-31/
     RDKit          3D

 10  9  0  0  0  0  0  0  0  0999 V2000
  -28.0162   -0.8135   28.8779 C   0  0  0  0  0  0  0  0  0  0  0  0
  -27.0636   -0.1190   28.6079 C   0  0  0  0  0  0  0  0  0  0  0  0
  -25.8837   -0.5253   28.7835 F   0  0  0  0  0  0  0  0  0  0  0  0
  -27.1010    1.1562   27.8909 C   0  0  0  0  0  0  0  0  0  0  0  0
  -27.8551   -1.7809   29.9423 C   0  0  0  0  0  0  0  0  0  0  0  0
  -27.9682    1.8981   27.7824 C   0  0  0  0  0  0  0  0  0  0  0  0
  -26.6741   -2.6275   29.8158 C   0  0  0  0  0  0  0  0  0  0  0  0
  -25.8202   -2.3614   29.1656 C   0  0  0  0  0  0  0  0  0  0  0  0
  -24.4465   -2.5855   29.1505 O   0  0  0  0  0  0  0  0  0  0  0  0
  -26.0264   -2.5195   27.8115 F   0  0  0  0  0  0  0  0  0  0  0  0
  1  2  1  0
  2  3  1  0
  2  4  1  0
  1  5  1  0
  4  6  2  0
  5  7  1  0
  7  8  1  0
  8  9  1  0
  8 10  1  0
M  END

$$$$
