No_3545-gen_results/8p0m/2024-11-27-11-27-31/
     RDKit          3D

  7  6  0  0  0  0  0  0  0  0999 V2000
  -28.1229   -1.3353   28.4874 O   0  0  0  0  0  0  0  0  0  0  0  0
  -27.0637   -0.8242   28.8687 C   0  0  0  0  0  0  0  0  0  0  0  0
  -26.0496   -0.9362   28.7578 C   0  0  0  0  0  0  0  0  0  0  0  0
  -25.2769   -1.6673   28.0552 C   0  0  0  0  0  0  0  0  0  0  0  0
  -27.3916    0.4274   29.6343 O   0  0  0  0  0  0  0  0  0  0  0  0
  -23.7799   -1.8033   28.1681 C   0  0  0  0  0  0  0  0  0  0  0  0
  -23.1891   -0.9134   29.1846 C   0  0  0  0  0  0  0  0  0  0  0  0
  1  2  1  0
  2  3  2  3
  3  4  1  0
  2  5  1  0
  4  6  2  3
  6  7  1  0
M  END

$$$$
