No_3517-gen_results/8p0m/2024-11-27-11-27-31/
     RDKit          3D

 30 32  0  0  0  0  0  0  0  0999 V2000
  -28.0162   -0.8135   28.8779 C   0  0  0  0  0  0  0  0  0  0  0  0
  -28.4690   -0.7850   29.8287 C   0  0  0  0  0  0  0  0  0  0  0  0
  -26.5455   -0.8762   28.8500 C   0  0  0  0  0  0  0  0  0  0  0  0
  -25.8041   -1.0324   30.0571 C   0  0  0  0  0  0  0  0  0  0  0  0
  -27.9437   -0.9869   31.2075 C   0  0  0  0  0  0  0  0  0  0  0  0
  -26.5825   -1.0386   31.2231 C   0  0  0  0  0  0  0  0  0  0  0  0
  -30.2809   -0.7232   29.8834 Cl  0  0  0  0  0  0  0  0  0  0  0  0
  -24.4684   -1.0902   30.0519 O   0  0  0  0  0  0  0  0  0  0  0  0
  -23.6938   -0.7403   30.8245 C   0  0  0  0  0  0  0  0  0  0  0  0
  -22.9758    0.5631   30.5258 C   0  0  0  0  0  0  0  0  0  0  0  0
  -23.5062    1.2965   29.3927 C   0  0  0  0  0  0  0  0  0  0  0  0
  -22.8234    1.4206   28.2713 N   0  0  0  0  0  0  0  0  0  0  0  0
  -23.3209    1.5564   27.1634 C   0  0  0  0  0  0  0  0  0  0  0  0
  -24.7245    1.5302   26.9682 C   0  0  0  0  0  0  0  0  0  0  0  0
  -25.3263    2.5464   26.4910 C   0  0  0  0  0  0  0  0  0  0  0  0
  -26.7294    2.6353   26.3801 C   0  0  0  0  0  0  0  0  0  0  0  0
  -27.3214    1.4955   25.9222 C   0  0  0  0  0  0  0  0  0  0  0  0
  -28.7219    1.5038   25.8333 C   0  0  0  0  0  0  0  0  0  0  0  0
  -29.3828    2.7260   25.8996 C   0  0  0  0  0  0  0  0  0  0  0  0
  -28.7794    3.9285   26.1510 C   0  0  0  0  0  0  0  0  0  0  0  0
  -27.3985    3.9387   26.3887 C   0  0  0  0  0  0  0  0  0  0  0  0
  -22.6470    2.2278   26.3245 O   0  0  0  0  0  0  0  0  0  0  0  0
  -21.3978    0.9976   28.2675 C   0  0  0  0  0  0  0  0  0  0  0  0
  -30.8837    2.7468   25.6667 C   0  0  0  0  0  0  0  0  0  0  0  0
  -31.3817    3.0462   24.5478 N   0  0  0  0  0  0  0  0  0  0  0  0
  -32.5423    2.9975   24.0151 C   0  0  0  0  0  0  0  0  0  0  0  0
  -32.8207    3.3690   22.6854 C   0  0  0  0  0  0  0  0  0  0  0  0
  -31.5859    3.1309   21.9760 C   0  0  0  0  0  0  0  0  0  0  0  0
  -30.5180    3.0159   23.2012 C   0  0  0  0  0  0  0  0  0  0  0  0
  -31.6093    2.6573   26.6160 O   0  0  0  0  0  0  0  0  0  0  0  0
  2  7  1  0
  4  8  1  0
  8  9  1  0
  9 10  1  0
 10 11  1  0
 11 12  1  0
 12 13  1  0
 13 14  1  0
 14 15  2  3
 15 16  1  0
 13 22  2  0
 12 23  1  0
 19 24  1  0
 24 25  1  0
 25 26  1  0
 26 27  2  0
 27 28  1  0
 25 29  1  0
 28 29  1  0
 24 30  2  0
  1  2  2  0
  2  5  1  0
  5  6  2  0
  6  4  1  0
  4  3  2  0
  3  1  1  0
 16 17  2  0
 17 18  1  0
 18 19  2  0
 19 20  1  0
 20 21  2  0
 21 16  1  0
M  END

$$$$
