No_342-gen_results/8p0m/2024-11-27-11-27-31/
     RDKit          3D

 32 35  0  0  0  0  0  0  0  0999 V2000
  -28.0162   -0.8135   28.8779 C   0  0  0  0  0  0  0  0  0  0  0  0
  -27.0636   -0.1190   28.6079 C   0  0  0  0  0  0  0  0  0  0  0  0
  -25.7923   -0.4302   29.0761 C   0  0  0  0  0  0  0  0  0  0  0  0
  -24.5456    0.3494   28.8225 C   0  0  0  0  0  0  0  0  0  0  0  0
  -23.2409    0.0217   29.3323 C   0  0  0  0  0  0  0  0  0  0  0  0
  -23.1926   -1.2816   29.8967 C   0  0  0  0  0  0  0  0  0  0  0  0
  -27.8703   -1.9138   29.8642 C   0  0  0  0  0  0  0  0  0  0  0  0
  -26.6310   -2.3256   30.2990 C   0  0  0  0  0  0  0  0  0  0  0  0
  -25.5115   -1.5728   29.9655 C   0  0  0  0  0  0  0  0  0  0  0  0
  -24.2124   -1.9703   30.3280 C   0  0  0  0  0  0  0  0  0  0  0  0
  -24.5933    1.5941   27.9969 C   0  0  0  0  0  0  0  0  0  0  0  0
  -24.7798    2.7091   28.6120 C   0  0  0  0  0  0  0  0  0  0  0  0
  -25.0489    3.8810   27.8701 C   0  0  0  0  0  0  0  0  0  0  0  0
  -24.4466    1.4851   26.6475 C   0  0  0  0  0  0  0  0  0  0  0  0
  -24.5590    2.6082   25.8353 C   0  0  0  0  0  0  0  0  0  0  0  0
  -24.8054    3.8632   26.4924 C   0  0  0  0  0  0  0  0  0  0  0  0
  -28.9936   -2.6610   30.1694 O   0  0  0  0  0  0  0  0  0  0  0  0
  -30.0937   -2.0325   30.6717 C   0  0  0  0  0  0  0  0  0  0  0  0
  -30.5947   -2.7542   31.7380 C   0  0  0  0  0  0  0  0  0  0  0  0
  -31.5215   -2.2928   32.2970 O   0  0  0  0  0  0  0  0  0  0  0  0
  -30.4872   -4.0415   31.7587 O   0  0  0  0  0  0  0  0  0  0  0  0
  -24.9699    2.8749   29.9734 O   0  0  0  0  0  0  0  0  0  0  0  0
  -26.1527    3.0593   30.6531 C   0  0  0  0  0  0  0  0  0  0  0  0
  -26.0227    3.8077   31.8301 C   0  0  0  0  0  0  0  0  0  0  0  0
  -26.8820    4.3443   32.5094 C   0  0  0  0  0  0  0  0  0  0  0  0
  -26.7063    5.0751   33.7903 C   0  0  0  0  0  0  0  0  0  0  0  0
  -26.0230    5.8053   34.0311 C   0  0  0  0  0  0  0  0  0  0  0  0
  -25.7551    6.5280   35.2482 C   0  0  0  0  0  0  0  0  0  0  0  0
  -26.6159    6.2274   36.2769 C   0  0  0  0  0  0  0  0  0  0  0  0
  -27.5940    5.3179   36.0695 C   0  0  0  0  0  0  0  0  0  0  0  0
  -27.6696    4.6732   34.8438 C   0  0  0  0  0  0  0  0  0  0  0  0
  -27.1992    2.7387   30.1219 O   0  0  0  0  0  0  0  0  0  0  0  0
  4 11  1  0
  7 17  1  0
 17 18  1  0
 18 19  1  0
 19 20  1  0
 19 21  2  0
 12 22  1  0
 22 23  1  0
 23 24  1  0
 24 25  2  3
 25 26  1  0
 23 32  2  0
 26 27  2  0
 27 28  1  0
 28 29  2  0
 29 30  1  0
 30 31  2  0
 31 26  1  0
  1  2  2  0
  2  3  1  0
  9  8  1  0
  8  7  2  0
  7  1  1  0
 11 12  1  0
 12 13  2  0
 13 16  1  0
 16 15  2  0
 15 14  1  0
 14 11  2  0
  3  4  2  0
  4  5  1  0
  5  6  2  0
  6 10  1  0
 10  9  2  0
  9  3  1  0
M  END

$$$$
