No_3341-gen_results/8p0m/2024-11-27-11-27-31/
     RDKit          3D

 27 29  0  0  0  0  0  0  0  0999 V2000
  -28.0162   -0.8135   28.8779 C   0  0  0  0  0  0  0  0  0  0  0  0
  -27.0636   -0.1190   28.6079 C   0  0  0  0  0  0  0  0  0  0  0  0
  -25.7923   -0.4302   29.0761 C   0  0  0  0  0  0  0  0  0  0  0  0
  -24.5456    0.3494   28.8225 C   0  0  0  0  0  0  0  0  0  0  0  0
  -23.2409    0.0217   29.3323 C   0  0  0  0  0  0  0  0  0  0  0  0
  -27.8820   -1.8995   29.8633 C   0  0  0  0  0  0  0  0  0  0  0  0
  -26.6526   -2.3142   30.3138 C   0  0  0  0  0  0  0  0  0  0  0  0
  -25.5153   -1.5607   29.9787 C   0  0  0  0  0  0  0  0  0  0  0  0
  -23.2072   -1.2289   30.0311 C   0  0  0  0  0  0  0  0  0  0  0  0
  -24.2434   -1.9361   30.3879 C   0  0  0  0  0  0  0  0  0  0  0  0
  -24.5886    1.5613   27.9544 C   0  0  0  0  0  0  0  0  0  0  0  0
  -24.8107    2.6834   28.5551 C   0  0  0  0  0  0  0  0  0  0  0  0
  -25.1287    3.8444   27.7787 C   0  0  0  0  0  0  0  0  0  0  0  0
  -24.4050    1.4363   26.6163 C   0  0  0  0  0  0  0  0  0  0  0  0
  -24.5474    2.5515   25.7815 C   0  0  0  0  0  0  0  0  0  0  0  0
  -24.8138    3.8081   26.3952 C   0  0  0  0  0  0  0  0  0  0  0  0
  -29.0008   -2.6402   30.1191 O   0  0  0  0  0  0  0  0  0  0  0  0
  -30.0956   -2.0392   30.6152 C   0  0  0  0  0  0  0  0  0  0  0  0
  -30.6210   -2.7841   31.6814 C   0  0  0  0  0  0  0  0  0  0  0  0
  -29.9487   -4.0625   32.0917 Cl  0  0  0  0  0  0  0  0  0  0  0  0
  -30.6313   -2.0034   32.8440 F   0  0  0  0  0  0  0  0  0  0  0  0
  -31.9657   -2.9389   31.2551 F   0  0  0  0  0  0  0  0  0  0  0  0
  -31.0200   -1.7581   29.5531 N   0  0  0  0  0  0  0  0  0  0  0  0
  -30.8894   -0.5651   28.8104 C   0  0  0  0  0  0  0  0  0  0  0  0
  -32.0961   -0.2609   28.1822 C   0  0  0  0  0  0  0  0  0  0  0  0
  -32.2528    0.9927   27.6952 C   0  0  0  0  0  0  0  0  0  0  0  0
  -33.4229    1.4266   27.1235 C   0  0  0  0  0  0  0  0  0  0  0  0
  4 11  1  0
  6 17  1  0
 17 18  1  0
 18 19  1  0
 19 20  1  0
 19 21  1  0
 19 22  1  0
 18 23  1  0
 23 24  1  0
 24 25  2  3
 25 26  1  0
 26 27  2  0
  1  2  2  0
  2  3  1  0
  8  7  1  0
  7  6  2  0
  6  1  1  0
  3  4  2  0
  4  5  1  0
  5  9  2  0
  9 10  1  0
 10  8  2  0
  8  3  1  0
 11 12  2  0
 12 13  1  0
 13 16  2  0
 16 15  1  0
 15 14  2  0
 14 11  1  0
M  END

$$$$
