No_3703-gen_results/8p0m/2024-11-27-11-27-31/
     RDKit          3D

 27 29  0  0  0  0  0  0  0  0999 V2000
  -28.0162   -0.8135   28.8779 C   0  0  0  0  0  0  0  0  0  0  0  0
  -27.0636   -0.1190   28.6079 C   0  0  0  0  0  0  0  0  0  0  0  0
  -25.7647   -0.3897   29.0360 C   0  0  0  0  0  0  0  0  0  0  0  0
  -24.5516    0.4058   28.7646 C   0  0  0  0  0  0  0  0  0  0  0  0
  -23.2300    0.1178   29.2575 C   0  0  0  0  0  0  0  0  0  0  0  0
  -22.1393    0.9427   28.9224 C   0  0  0  0  0  0  0  0  0  0  0  0
  -27.8294   -1.9287   29.8545 C   0  0  0  0  0  0  0  0  0  0  0  0
  -26.5882   -2.3272   30.2682 C   0  0  0  0  0  0  0  0  0  0  0  0
  -25.4565   -1.5432   29.9146 C   0  0  0  0  0  0  0  0  0  0  0  0
  -22.2302    1.9089   27.8723 C   0  0  0  0  0  0  0  0  0  0  0  0
  -24.5538    1.4700   27.7617 C   0  0  0  0  0  0  0  0  0  0  0  0
  -23.4471    2.1666   27.3764 C   0  0  0  0  0  0  0  0  0  0  0  0
  -28.9842   -2.7701   30.2567 C   0  0  0  0  0  0  0  0  0  0  0  0
  -29.3144   -2.8198   31.8879 S   0  0  0  0  0  0  0  0  0  0  0  0
  -30.1337   -4.2462   31.9184 C   0  0  0  0  0  0  0  0  0  0  0  0
  -29.5655   -3.5138   29.5273 O   0  0  0  0  0  0  0  0  0  0  0  0
  -31.4063   -3.9538   31.9318 C   0  0  0  0  0  0  0  0  0  0  0  0
  -32.2217   -4.9035   31.4493 C   0  0  0  0  0  0  0  0  0  0  0  0
  -33.4956   -4.6857   30.9673 C   0  0  0  0  0  0  0  0  0  0  0  0
  -34.0463   -3.3858   31.2593 C   0  0  0  0  0  0  0  0  0  0  0  0
  -33.2857   -2.4149   31.7951 C   0  0  0  0  0  0  0  0  0  0  0  0
  -31.9615   -2.6404   32.0574 C   0  0  0  0  0  0  0  0  0  0  0  0
  -29.5031   -5.4090   32.2905 C   0  0  0  0  0  0  0  0  0  0  0  0
  -29.9101   -6.5156   31.7760 O   0  0  0  0  0  0  0  0  0  0  0  0
  -35.4786   -3.1874   30.9155 C   0  0  0  0  0  0  0  0  0  0  0  0
  -36.0647   -2.1026   31.4699 C   0  0  0  0  0  0  0  0  0  0  0  0
  -35.3150   -1.0115   31.9718 C   0  0  0  0  0  0  0  0  0  0  0  0
  3  4  1  0
  7 13  1  0
 13 14  1  0
 14 15  1  0
 13 16  2  0
 15 17  1  0
 15 23  1  0
 23 24  2  0
 20 25  1  0
 25 26  1  0
 26 27  2  0
 17 18  2  0
 18 19  1  0
 19 20  2  0
 20 21  1  0
 21 22  2  0
 22 17  1  0
  1  2  2  0
  2  3  1  0
  3  9  2  0
  9  8  1  0
  8  7  2  0
  7  1  1  0
  4  5  2  0
  5  6  1  0
  6 10  2  0
 10 12  1  0
 12 11  2  0
 11  4  1  0
M  END

$$$$
