No_366-gen_results/8p0m/2024-11-27-11-27-31/
     RDKit          3D

 13 14  0  0  0  0  0  0  0  0999 V2000
  -28.0162   -0.8135   28.8779 C   0  0  0  0  0  0  0  0  0  0  0  0
  -27.0636   -0.1189   28.6079 C   0  0  0  0  0  0  0  0  0  0  0  0
  -25.8176   -0.3427   29.0487 N   0  0  0  0  0  0  0  0  0  0  0  0
  -24.6506    0.4445   28.7649 C   0  0  0  0  0  0  0  0  0  0  0  0
  -23.3389    0.1171   29.2584 C   0  0  0  0  0  0  0  0  0  0  0  0
  -22.2334    0.8466   28.9289 C   0  0  0  0  0  0  0  0  0  0  0  0
  -22.3371    1.8263   27.9142 C   0  0  0  0  0  0  0  0  0  0  0  0
  -24.7730    1.5982   27.9374 C   0  0  0  0  0  0  0  0  0  0  0  0
  -23.6042    2.2524   27.5170 C   0  0  0  0  0  0  0  0  0  0  0  0
  -29.3242   -0.2904   28.8431 C   0  0  0  0  0  0  0  0  0  0  0  0
  -29.5330    0.8407   28.0411 C   0  0  0  0  0  0  0  0  0  0  0  0
  -28.4884    1.5652   27.5752 C   0  0  0  0  0  0  0  0  0  0  0  0
  -27.1645    1.1954   27.9107 C   0  0  0  0  0  0  0  0  0  0  0  0
  3  4  1  0
  3  2  1  0
  4  5  2  0
  5  6  1  0
  6  7  2  0
  7  9  1  0
  9  8  2  0
  8  4  1  0
  1  2  2  0
  2 13  1  0
 13 12  2  0
 12 11  1  0
 11 10  2  0
 10  1  1  0
M  END

$$$$
