No_3869-gen_results/8p0m/2024-11-27-11-27-31/
     RDKit          3D

 15 16  0  0  0  0  0  0  0  0999 V2000
  -28.0162   -0.8135   28.8779 C   0  0  0  0  0  0  0  0  0  0  0  0
  -27.0636   -0.1190   28.6079 C   0  0  0  0  0  0  0  0  0  0  0  0
  -25.7923   -0.4302   29.0761 C   0  0  0  0  0  0  0  0  0  0  0  0
  -25.5756   -1.5654   29.9363 C   0  0  0  0  0  0  0  0  0  0  0  0
  -26.7354   -2.3004   30.2173 C   0  0  0  0  0  0  0  0  0  0  0  0
  -27.9184   -1.9537   29.7629 C   0  0  0  0  0  0  0  0  0  0  0  0
  -26.8968    1.1016   27.7052 C   0  0  0  0  0  0  0  0  0  0  0  0
  -27.7061    1.4295   26.9663 C   0  0  0  0  0  0  0  0  0  0  0  0
  -28.9293    0.7867   26.8882 C   0  0  0  0  0  0  0  0  0  0  0  0
  -29.7406    1.1421   25.7574 C   0  0  0  0  0  0  0  0  0  0  0  0
  -29.3106    2.1008   24.8457 C   0  0  0  0  0  0  0  0  0  0  0  0
  -28.1178    2.7639   24.9381 C   0  0  0  0  0  0  0  0  0  0  0  0
  -27.2924    2.4398   25.9373 C   0  0  0  0  0  0  0  0  0  0  0  0
  -25.5108    1.7232   27.8652 C   0  0  0  0  0  0  0  0  0  0  0  0
  -24.4923    1.1069   28.4037 C   0  0  0  0  0  0  0  0  0  0  0  0
  2  7  1  0
  7  8  1  0
  7 14  1  0
 14 15  2  0
  1  2  2  0
  2  3  1  0
  3  4  2  0
  4  5  1  0
  5  6  2  0
  6  1  1  0
  8  9  2  0
  9 10  1  0
 10 11  2  0
 11 12  1  0
 12 13  2  0
 13  8  1  0
M  END

$$$$
