No_3524-gen_results/8p0m/2024-11-27-11-27-31/
     RDKit          3D

 31 32  0  0  0  0  0  0  0  0999 V2000
  -28.0162   -0.8135   28.8779 C   0  0  0  0  0  0  0  0  0  0  0  0
  -28.4690   -0.7850   29.8287 C   0  0  0  0  0  0  0  0  0  0  0  0
  -28.1960    0.3478   28.0550 C   0  0  0  0  0  0  0  0  0  0  0  0
  -29.0191    1.3501   28.3782 C   0  0  0  0  0  0  0  0  0  0  0  0
  -29.4107    0.1803   30.3782 C   0  0  0  0  0  0  0  0  0  0  0  0
  -29.6059    1.2495   29.6193 C   0  0  0  0  0  0  0  0  0  0  0  0
  -27.4597    0.3802   26.7091 C   0  0  0  0  0  0  0  0  0  0  0  0
  -26.0094    0.3317   26.7236 C   0  0  0  0  0  0  0  0  0  0  0  0
  -25.3055    0.0239   27.8527 C   0  0  0  0  0  0  0  0  0  0  0  0
  -24.2699    0.6212   28.3403 C   0  0  0  0  0  0  0  0  0  0  0  0
  -23.7199    1.4161   28.0384 C   0  0  0  0  0  0  0  0  0  0  0  0
  -24.0006    1.8579   26.5594 C   0  0  0  0  0  0  0  0  0  0  0  0
  -25.3044    1.4444   26.0074 C   0  0  0  0  0  0  0  0  0  0  0  0
  -28.0989    0.2758   25.4862 C   0  0  0  0  0  0  0  0  0  0  0  0
  -22.4840    1.9229   28.2759 F   0  0  0  0  0  0  0  0  0  0  0  0
  -29.3113    0.3693   25.4744 O   0  0  0  0  0  0  0  0  0  0  0  0
  -27.3772   -0.1749   24.4908 O   0  0  0  0  0  0  0  0  0  0  0  0
  -30.5358    2.3644   30.0798 C   0  0  0  0  0  0  0  0  0  0  0  0
  -30.7753    2.4509   31.2044 F   0  0  0  0  0  0  0  0  0  0  0  0
  -31.3539    2.7983   29.1997 F   0  0  0  0  0  0  0  0  0  0  0  0
  -28.3160   -1.9843   30.8822 C   0  0  0  0  0  0  0  0  0  0  0  0
  -29.0997   -2.6881   31.0695 O   0  0  0  0  0  0  0  0  0  0  0  0
  -27.1094   -2.0431   31.4379 O   0  0  0  0  0  0  0  0  0  0  0  0
  -23.5644    0.0640   29.7281 C   0  0  0  0  0  0  0  0  0  0  0  0
  -22.6284   -0.6798   29.7021 N   0  0  0  0  0  0  0  0  0  0  0  0
  -24.2499    0.3880   30.9861 C   0  0  0  0  0  0  0  0  0  0  0  0
  -24.7498    1.6493   31.3525 C   0  0  0  0  0  0  0  0  0  0  0  0
  -25.4312    1.7935   32.5698 C   0  0  0  0  0  0  0  0  0  0  0  0
  -25.7002    0.6742   33.3621 C   0  0  0  0  0  0  0  0  0  0  0  0
  -25.1409   -0.5239   33.0527 C   0  0  0  0  0  0  0  0  0  0  0  0
  -24.4391   -0.7205   31.8664 C   0  0  0  0  0  0  0  0  0  0  0  0
  3  7  1  0
  7  8  1  0
  7 14  1  0
 11 15  1  0
 14 16  2  0
 14 17  1  0
  6 18  1  0
 18 19  1  0
 18 20  1  0
  2 21  1  0
 21 22  1  0
 21 23  2  0
 10 24  1  0
 24 25  1  0
 24 26  1  0
 26 27  2  3
 27 28  1  0
 28 29  2  3
 29 30  1  0
 30 31  2  0
  8  9  2  0
  9 10  1  0
 10 11  2  0
 11 12  1  0
 12 13  2  0
 13  8  1  0
  1  2  2  0
  2  5  1  0
  5  6  2  0
  6  4  1  0
  4  3  2  0
  3  1  1  0
M  END

$$$$
