No_3044-gen_results/8p0m/2024-11-27-11-27-31/
     RDKit          3D

 17 19  0  0  0  0  0  0  0  0999 V2000
  -28.0162   -0.8135   28.8779 C   0  0  0  0  0  0  0  0  0  0  0  0
  -28.4690   -0.7850   29.8287 C   0  0  0  0  0  0  0  0  0  0  0  0
  -26.5042   -0.7777   28.8766 C   0  0  0  0  0  0  0  0  0  0  0  0
  -25.6540   -0.6597   27.7191 C   0  0  0  0  0  0  0  0  0  0  0  0
  -29.9920   -0.8134   29.9579 C   0  0  0  0  0  0  0  0  0  0  0  0
  -24.2081   -0.6354   27.9684 C   0  0  0  0  0  0  0  0  0  0  0  0
  -23.7148   -0.7617   29.2554 C   0  0  0  0  0  0  0  0  0  0  0  0
  -24.5039   -0.8892   30.3377 C   0  0  0  0  0  0  0  0  0  0  0  0
  -25.8377   -0.9206   30.1886 C   0  0  0  0  0  0  0  0  0  0  0  0
  -27.9056   -0.8398   31.2429 C   0  0  0  0  0  0  0  0  0  0  0  0
  -26.6522   -0.9404   31.3581 C   0  0  0  0  0  0  0  0  0  0  0  0
  -30.5693   -0.0591   29.1579 N   0  0  0  0  0  0  0  0  0  0  0  0
  -30.0257    0.9361   28.5975 C   0  0  0  0  0  0  0  0  0  0  0  0
  -32.0080   -0.3256   28.8554 C   0  0  0  0  0  0  0  0  0  0  0  0
  -30.7310    1.7254   27.5554 C   0  0  0  0  0  0  0  0  0  0  0  0
  -32.6473    0.3523   27.8411 C   0  0  0  0  0  0  0  0  0  0  0  0
  -32.0486    1.5104   27.3320 C   0  0  0  0  0  0  0  0  0  0  0  0
  5 12  1  0
 12 13  1  0
 12 14  1  0
 15 17  1  0
 16 17  1  0
  5  2  1  0
 13 15  1  0
 16 14  1  0
  3  4  2  0
  4  6  1  0
  6  7  2  0
  7  8  1  0
  8  9  2  0
  1  2  2  0
  2 10  1  0
 10 11  2  0
 11  9  1  0
  9  3  1  0
  3  1  1  0
M  END

$$$$
