No_3879-gen_results/8p0m/2024-11-27-11-27-31/
     RDKit          3D

 33 34  0  0  0  0  0  0  0  0999 V2000
  -28.1493   -0.8198   28.9079 Cl  0  0  0  0  0  0  0  0  0  0  0  0
  -26.9116   -0.0797   28.9452 C   0  0  0  0  0  0  0  0  0  0  0  0
  -26.7384    1.0439   29.2534 C   0  0  0  0  0  0  0  0  0  0  0  0
  -25.4392    1.7115   29.2755 C   0  0  0  0  0  0  0  0  0  0  0  0
  -24.2813    0.9888   28.8542 C   0  0  0  0  0  0  0  0  0  0  0  0
  -24.4869   -0.3041   28.4957 C   0  0  0  0  0  0  0  0  0  0  0  0
  -25.7046   -0.8667   28.5244 C   0  0  0  0  0  0  0  0  0  0  0  0
  -22.9617    1.6322   28.7948 C   0  0  0  0  0  0  0  0  0  0  0  0
  -22.7682    2.7355   28.6243 O   0  0  0  0  0  0  0  0  0  0  0  0
  -21.9200    0.7432   28.6274 O   0  0  0  0  0  0  0  0  0  0  0  0
  -27.7030    1.8526   29.6927 F   0  0  0  0  0  0  0  0  0  0  0  0
  -25.1899    3.3378   29.7564 Cl  0  0  0  0  0  0  0  0  0  0  0  0
  -21.8913   -0.3950   29.3942 C   0  0  0  0  0  0  0  0  0  0  0  0
  -25.8342   -2.1461   28.1522 F   0  0  0  0  0  0  0  0  0  0  0  0
  -21.2211   -1.4848   28.7108 C   0  0  0  0  0  0  0  0  0  0  0  0
  -22.3446   -0.4622   30.6836 C   0  0  0  0  0  0  0  0  0  0  0  0
  -22.3905   -1.6550   31.2924 N   0  0  0  0  0  0  0  0  0  0  0  0
  -23.5854   -2.0571   31.9495 C   0  0  0  0  0  0  0  0  0  0  0  0
  -24.6697   -1.0219   31.9155 C   0  0  0  0  0  0  0  0  0  0  0  0
  -24.5243   -0.0152   32.8812 C   0  0  0  0  0  0  0  0  0  0  0  0
  -25.5072    1.0980   32.8304 C   0  0  0  0  0  0  0  0  0  0  0  0
  -25.3862    2.2245   33.5991 C   0  0  0  0  0  0  0  0  0  0  0  0
  -25.9138    3.3584   32.9986 C   0  0  0  0  0  0  0  0  0  0  0  0
  -25.5220    4.6605   33.4888 C   0  0  0  0  0  0  0  0  0  0  0  0
  -25.2149    5.6677   32.6054 C   0  0  0  0  0  0  0  0  0  0  0  0
  -25.9800    5.7712   31.4432 C   0  0  0  0  0  0  0  0  0  0  0  0
  -26.6907    4.6539   31.0476 C   0  0  0  0  0  0  0  0  0  0  0  0
  -26.5675    3.4637   31.7871 C   0  0  0  0  0  0  0  0  0  0  0  0
  -26.0376    6.9909   30.6353 C   0  0  0  0  0  0  0  0  0  0  0  0
  -25.0844    7.7234   30.7168 F   0  0  0  0  0  0  0  0  0  0  0  0
  -26.2186    6.6482   29.3079 F   0  0  0  0  0  0  0  0  0  0  0  0
  -27.1737    7.6656   31.0030 F   0  0  0  0  0  0  0  0  0  0  0  0
  -27.0410    2.3936   31.4397 F   0  0  0  0  0  0  0  0  0  0  0  0
  1  2  1  0
  5  8  1  0
  8  9  2  0
  8 10  1  0
  3 11  1  0
  4 12  1  0
 10 13  1  0
  7 14  1  0
 13 15  2  0
 13 16  1  0
 16 17  1  0
 17 18  1  0
 18 19  1  0
 19 20  1  0
 20 21  2  3
 21 22  1  0
 22 23  1  0
 26 29  1  0
 29 30  1  0
 29 31  1  0
 29 32  1  0
 28 33  1  0
  2  3  2  0
  3  4  1  0
  4  5  2  0
  5  6  1  0
  6  7  2  0
  7  2  1  0
 23 24  2  0
 24 25  1  0
 25 26  2  0
 26 27  1  0
 27 28  2  0
 28 23  1  0
M  END

$$$$
