No_3495-gen_results/8p0m/2024-11-27-11-27-31/
     RDKit          3D

 28 32  0  0  0  0  0  0  0  0999 V2000
  -28.0162   -0.8135   28.8779 C   0  0  0  0  0  0  0  0  0  0  0  0
  -28.4690   -0.7850   29.8287 C   0  0  0  0  0  0  0  0  0  0  0  0
  -26.5042   -0.7777   28.8766 C   0  0  0  0  0  0  0  0  0  0  0  0
  -25.8103   -0.8531   30.1028 C   0  0  0  0  0  0  0  0  0  0  0  0
  -27.9906   -0.8916   31.2257 C   0  0  0  0  0  0  0  0  0  0  0  0
  -26.6042   -0.8676   31.2652 C   0  0  0  0  0  0  0  0  0  0  0  0
  -24.5534   -0.7870   30.1406 F   0  0  0  0  0  0  0  0  0  0  0  0
  -30.0954   -0.8409   29.8497 C   0  0  0  0  0  0  0  0  0  0  0  0
  -30.5236   -0.4692   28.9258 O   0  0  0  0  0  0  0  0  0  0  0  0
  -30.7799   -1.3301   30.9281 N   0  0  0  0  0  0  0  0  0  0  0  0
  -32.2162   -1.3609   30.8714 C   0  0  0  0  0  0  0  0  0  0  0  0
  -32.7470   -2.0852   31.7086 C   0  0  0  0  0  0  0  0  0  0  0  0
  -32.0615   -2.6997   32.8438 C   0  0  0  0  0  0  0  0  0  0  0  0
  -30.6562   -2.6474   32.8536 C   0  0  0  0  0  0  0  0  0  0  0  0
  -30.0293   -2.0773   31.8781 C   0  0  0  0  0  0  0  0  0  0  0  0
  -28.6737   -1.4033   32.2440 C   0  0  0  0  0  0  0  0  0  0  0  0
  -25.6800   -0.5920   27.6392 C   0  0  0  0  0  0  0  0  0  0  0  0
  -25.3076    0.7510   27.2921 C   0  0  0  0  0  0  0  0  0  0  0  0
  -25.5094    1.2282   26.1187 C   0  0  0  0  0  0  0  0  0  0  0  0
  -26.1690    0.4572   25.1008 C   0  0  0  0  0  0  0  0  0  0  0  0
  -26.6471   -0.6645   25.2296 C   0  0  0  0  0  0  0  0  0  0  0  0
  -26.0302   -1.4286   26.6520 O   0  0  0  0  0  0  0  0  0  0  0  0
  -34.2460   -2.2164   31.7526 C   0  0  0  0  0  0  0  0  0  0  0  0
  -34.7840   -2.9553   30.8783 C   0  0  0  0  0  0  0  0  0  0  0  0
  -36.1623   -3.0549   30.7337 C   0  0  0  0  0  0  0  0  0  0  0  0
  -34.9714   -1.4817   32.6792 C   0  0  0  0  0  0  0  0  0  0  0  0
  -36.3647   -1.5597   32.6450 C   0  0  0  0  0  0  0  0  0  0  0  0
  -36.9535   -2.3387   31.6912 C   0  0  0  0  0  0  0  0  0  0  0  0
  4  7  1  0
  2  8  1  0
  8  9  2  0
  8 10  1  0
 10 11  1  0
 12 13  1  0
 10 15  1  0
 14 15  1  0
  5 16  1  0
 15 16  1  0
  3 17  1  0
 17 18  1  0
 18 19  2  0
 19 20  1  0
 20 21  1  0
 17 22  1  0
 21 22  1  0
 12 23  1  0
 11 12  1  0
 13 14  1  0
 23 24  2  0
 24 25  1  0
 25 28  2  0
 28 27  1  0
 27 26  2  0
 26 23  1  0
  1  2  2  0
  2  5  1  0
  5  6  2  0
  6  4  1  0
  4  3  2  0
  3  1  1  0
M  END

$$$$
