No_324-gen_results/8p0m/2024-11-27-11-27-31/
     RDKit          3D

 11 11  0  0  0  0  0  0  0  0999 V2000
  -28.1493   -0.8198   28.9079 Cl  0  0  0  0  0  0  0  0  0  0  0  0
  -26.9116   -0.0797   28.9452 C   0  0  0  0  0  0  0  0  0  0  0  0
  -26.7384    1.0439   29.2534 C   0  0  0  0  0  0  0  0  0  0  0  0
  -25.4392    1.7115   29.2755 C   0  0  0  0  0  0  0  0  0  0  0  0
  -24.5061    1.1438   28.8660 C   0  0  0  0  0  0  0  0  0  0  0  0
  -23.0896    1.7371   28.8291 C   0  0  0  0  0  0  0  0  0  0  0  0
  -24.5512   -0.1959   28.4024 C   0  0  0  0  0  0  0  0  0  0  0  0
  -25.7206   -0.8176   28.4702 C   0  0  0  0  0  0  0  0  0  0  0  0
  -22.0487    1.2158   28.5164 O   0  0  0  0  0  0  0  0  0  0  0  0
  -23.0237    2.9397   29.2700 O   0  0  0  0  0  0  0  0  0  0  0  0
  -27.7765    1.7869   29.7710 F   0  0  0  0  0  0  0  0  0  0  0  0
  1  2  1  0
  5  6  1  0
  6  9  2  0
  6 10  1  0
  3 11  1  0
  2  3  2  0
  3  4  1  0
  4  5  2  0
  5  7  1  0
  7  8  2  0
  8  2  1  0
M  END

$$$$
