No_3235-gen_results/8p0m/2024-11-27-11-27-31/
     RDKit          3D

 10 10  0  0  0  0  0  0  0  0999 V2000
  -28.1146   -0.6256   29.0813 Br  0  0  0  0  0  0  0  0  0  0  0  0
  -26.9268    0.4545   28.6846 C   0  0  0  0  0  0  0  0  0  0  0  0
  -26.3163    0.3925   27.4205 C   0  0  0  0  0  0  0  0  0  0  0  0
  -25.2405    1.2269   27.1029 C   0  0  0  0  0  0  0  0  0  0  0  0
  -24.6421    2.0408   28.0381 C   0  0  0  0  0  0  0  0  0  0  0  0
  -25.1836    2.0489   29.2792 C   0  0  0  0  0  0  0  0  0  0  0  0
  -26.1920    1.2622   29.6115 C   0  0  0  0  0  0  0  0  0  0  0  0
  -23.5681    2.8224   27.6582 O   0  0  0  0  0  0  0  0  0  0  0  0
  -26.6908    1.2927   30.8760 F   0  0  0  0  0  0  0  0  0  0  0  0
  -24.6806    1.1953   25.6915 C   0  0  0  0  0  0  0  0  0  0  0  0
  1  2  1  0
  5  8  1  0
  7  9  1  0
  4 10  1  0
  2  3  2  0
  3  4  1  0
  4  5  2  0
  5  6  1  0
  6  7  2  0
  7  2  1  0
M  END

$$$$
