No_3546-gen_results/8p0m/2024-11-27-11-27-31/
     RDKit          3D

  7  7  0  0  0  0  0  0  0  0999 V2000
  -28.0727   -1.2542   28.5316 F   0  0  0  0  0  0  0  0  0  0  0  0
  -27.3591   -0.3792   28.7224 C   0  0  0  0  0  0  0  0  0  0  0  0
  -26.3323   -0.6441   29.4520 C   0  0  0  0  0  0  0  0  0  0  0  0
  -27.5334    0.8592   28.0521 C   0  0  0  0  0  0  0  0  0  0  0  0
  -26.4657    1.8236   28.0839 C   0  0  0  0  0  0  0  0  0  0  0  0
  -25.2045    0.4067   29.6244 C   0  0  0  0  0  0  0  0  0  0  0  0
  -25.3642    1.6216   28.9343 C   0  0  0  0  0  0  0  0  0  0  0  0
  1  2  1  0
  2  3  2  0
  3  6  1  0
  6  7  2  0
  7  5  1  0
  5  4  2  0
  4  2  1  0
M  END

$$$$
