No_3946-gen_results/8p0m/2024-11-27-11-27-31/
     RDKit          3D

 34 39  0  0  0  0  0  0  0  0999 V2000
  -28.0162   -0.8135   28.8779 C   0  0  0  0  0  0  0  0  0  0  0  0
  -27.0636   -0.1189   28.6079 C   0  0  0  0  0  0  0  0  0  0  0  0
  -25.7647   -0.3897   29.0360 C   0  0  0  0  0  0  0  0  0  0  0  0
  -25.5296   -1.5302   29.9014 C   0  0  0  0  0  0  0  0  0  0  0  0
  -26.6888   -2.2893   30.1810 C   0  0  0  0  0  0  0  0  0  0  0  0
  -27.8727   -1.9508   29.7373 C   0  0  0  0  0  0  0  0  0  0  0  0
  -28.9304   -2.7298   30.1154 O   0  0  0  0  0  0  0  0  0  0  0  0
  -24.5394    0.4211   28.7421 C   0  0  0  0  0  0  0  0  0  0  0  0
  -24.5259    1.2743   27.7265 C   0  0  0  0  0  0  0  0  0  0  0  0
  -23.3416    1.9045   27.3361 C   0  0  0  0  0  0  0  0  0  0  0  0
  -22.1280    1.7084   27.9936 C   0  0  0  0  0  0  0  0  0  0  0  0
  -23.2921    0.1076   29.3655 C   0  0  0  0  0  0  0  0  0  0  0  0
  -22.0894    0.7943   29.0137 C   0  0  0  0  0  0  0  0  0  0  0  0
  -28.7847   -3.9986   30.6384 C   0  0  0  0  0  0  0  0  0  0  0  0
  -29.8341   -4.8483   30.2417 C   0  0  0  0  0  0  0  0  0  0  0  0
  -31.0298   -4.3871   30.7341 C   0  0  0  0  0  0  0  0  0  0  0  0
  -31.3764   -3.6710   31.4224 O   0  0  0  0  0  0  0  0  0  0  0  0
  -32.0933   -4.8547   29.7690 N   0  0  0  0  0  0  0  0  0  0  0  0
  -33.4756   -4.4348   29.8786 C   0  0  0  0  0  0  0  0  0  0  0  0
  -31.8844   -5.7802   28.6810 C   0  0  0  0  0  0  0  0  0  0  0  0
  -32.3210   -5.5321   27.5696 C   0  0  0  0  0  0  0  0  0  0  0  0
  -34.0977   -4.2471   28.5464 C   0  0  0  0  0  0  0  0  0  0  0  0
  -33.7760   -5.1691   27.5105 C   0  0  0  0  0  0  0  0  0  0  0  0
  -35.6733   -4.1473   28.6793 C   0  0  0  0  0  0  0  0  0  0  0  0
  -33.6819   -2.8397   27.9885 C   0  0  0  0  0  0  0  0  0  0  0  0
  -32.7421   -2.4492   27.7708 C   0  0  0  0  0  0  0  0  0  0  0  0
  -32.3298   -1.0632   27.3191 C   0  0  0  0  0  0  0  0  0  0  0  0
  -33.3221   -0.2873   26.9488 C   0  0  0  0  0  0  0  0  0  0  0  0
  -34.6507   -0.7295   27.1724 C   0  0  0  0  0  0  0  0  0  0  0  0
  -34.8741   -1.9584   27.6857 C   0  0  0  0  0  0  0  0  0  0  0  0
  -36.0561   -2.8461   28.2010 C   0  0  0  0  0  0  0  0  0  0  0  0
  -34.6659   -5.8585   26.7508 C   0  0  0  0  0  0  0  0  0  0  0  0
  -36.3382   -5.1928   27.9744 C   0  0  0  0  0  0  0  0  0  0  0  0
  -35.8739   -5.9140   27.0336 N   0  0  0  0  0  0  0  0  0  0  0  0
  6  7  1  0
  3  8  1  0
  7 14  1  0
 14 15  1  0
 15 16  1  0
 16 17  2  0
 16 18  1  0
 18 19  1  0
 18 20  1  0
 19 22  1  0
 21 23  1  0
 22 23  1  0
 22 24  1  0
 22 25  1  0
 30 31  1  0
 23 32  1  0
 24 33  1  0
 32 34  1  0
 31 24  1  0
 21 20  1  0
 34 33  1  0
  1  2  2  0
  2  3  1  0
  3  4  2  0
  4  5  1  0
  5  6  2  0
  6  1  1  0
 25 26  2  0
 26 27  1  0
 27 28  2  0
 28 29  1  0
 29 30  2  0
 30 25  1  0
  8  9  2  0
  9 10  1  0
 10 11  2  0
 11 13  1  0
 13 12  2  0
 12  8  1  0
M  END

$$$$
