No_3076-gen_results/8p0m/2024-11-27-11-27-31/
     RDKit          3D

 15 16  0  0  0  0  0  0  0  0999 V2000
  -28.0162   -0.8135   28.8779 C   0  0  0  0  0  0  0  0  0  0  0  0
  -28.4690   -0.7850   29.8287 C   0  0  0  0  0  0  0  0  0  0  0  0
  -26.5042   -0.7777   28.8766 C   0  0  0  0  0  0  0  0  0  0  0  0
  -25.8103   -0.8531   30.1028 C   0  0  0  0  0  0  0  0  0  0  0  0
  -27.9906   -0.8916   31.2257 C   0  0  0  0  0  0  0  0  0  0  0  0
  -26.6042   -0.8676   31.2652 C   0  0  0  0  0  0  0  0  0  0  0  0
  -23.9859   -0.7976   30.1716 Br  0  0  0  0  0  0  0  0  0  0  0  0
  -30.3292   -0.8398   29.8324 Cl  0  0  0  0  0  0  0  0  0  0  0  0
  -25.5524   -0.7239   27.4437 Cl  0  0  0  0  0  0  0  0  0  0  0  0
  -28.7625   -0.9269   32.4793 C   0  0  0  0  0  0  0  0  0  0  0  0
  -29.6596   -0.1166   32.6192 O   0  0  0  0  0  0  0  0  0  0  0  0
  -30.7160   -0.3823   33.4333 C   0  0  0  0  0  0  0  0  0  0  0  0
  -30.8892   -1.4922   33.7438 C   0  0  0  0  0  0  0  0  0  0  0  0
  -29.8534   -2.5456   33.6531 C   0  0  0  0  0  0  0  0  0  0  0  0
  -28.7209   -2.2150   33.0868 C   0  0  0  0  0  0  0  0  0  0  0  0
  4  7  1  0
  2  8  1  0
  3  9  1  0
  5 10  1  0
 10 11  1  0
 11 12  1  0
 12 13  2  0
 13 14  1  0
 10 15  1  0
 14 15  2  0
  1  2  2  0
  2  5  1  0
  5  6  2  0
  6  4  1  0
  4  3  2  0
  3  1  1  0
M  END

$$$$
