No_393-gen_results/8p0m/2024-11-27-11-27-31/
     RDKit          3D

 13 14  0  0  0  0  0  0  0  0999 V2000
  -28.0162   -0.8135   28.8779 C   0  0  0  0  0  0  0  0  0  0  0  0
  -28.4690   -0.7850   29.8287 C   0  0  0  0  0  0  0  0  0  0  0  0
  -26.5042   -0.7777   28.8766 C   0  0  0  0  0  0  0  0  0  0  0  0
  -25.6540   -0.6597   27.7191 C   0  0  0  0  0  0  0  0  0  0  0  0
  -29.9920   -0.8134   29.9579 C   0  0  0  0  0  0  0  0  0  0  0  0
  -24.2351   -0.6218   27.9719 C   0  0  0  0  0  0  0  0  0  0  0  0
  -23.8288   -0.4712   29.1347 C   0  0  0  0  0  0  0  0  0  0  0  0
  -24.5020   -0.4850   30.3218 C   0  0  0  0  0  0  0  0  0  0  0  0
  -25.8813   -0.6423   30.1981 C   0  0  0  0  0  0  0  0  0  0  0  0
  -30.6340   -1.0109   31.1318 C   0  0  0  0  0  0  0  0  0  0  0  0
  -29.8681   -1.0380   32.3364 C   0  0  0  0  0  0  0  0  0  0  0  0
  -28.5424   -1.0463   32.3538 C   0  0  0  0  0  0  0  0  0  0  0  0
  -27.8528   -0.9921   31.2110 C   0  0  0  0  0  0  0  0  0  0  0  0
  1  2  1  0
  1  3  1  0
  3  4  2  0
  4  6  1  0
  6  7  2  0
  7  8  1  0
  8  9  2  0
  9  3  1  0
  2  5  2  0
  5 10  1  0
 10 11  2  0
 11 12  1  0
 12 13  2  0
 13  2  1  0
M  END

$$$$
