No_3986-gen_results/8p0m/2024-11-27-11-27-31/
     RDKit          3D

 10 10  0  0  0  0  0  0  0  0999 V2000
  -28.1229   -1.3353   28.4874 O   0  0  0  0  0  0  0  0  0  0  0  0
  -27.0637   -0.8242   28.8687 C   0  0  0  0  0  0  0  0  0  0  0  0
  -26.9592    0.0926   29.7582 C   0  0  0  0  0  0  0  0  0  0  0  0
  -25.8472   -1.5491   28.6589 N   0  0  0  0  0  0  0  0  0  0  0  0
  -27.8673    0.9590   30.1109 C   0  0  0  0  0  0  0  0  0  0  0  0
  -24.5647   -1.1378   29.0392 C   0  0  0  0  0  0  0  0  0  0  0  0
  -24.4510   -0.0172   29.7492 C   0  0  0  0  0  0  0  0  0  0  0  0
  -25.5598    0.6710   30.1599 C   0  0  0  0  0  0  0  0  0  0  0  0
  -28.5828    1.5124   29.4485 O   0  0  0  0  0  0  0  0  0  0  0  0
  -28.3775    0.6123   31.4720 O   0  0  0  0  0  0  0  0  0  0  0  0
  1  2  2  0
  2  3  1  0
  2  4  1  0
  3  5  1  0
  4  6  1  0
  3  8  1  0
  7  8  1  0
  5  9  2  0
  5 10  1  0
  7  6  1  0
M  END

$$$$
