No_3643-gen_results/8p0m/2024-11-27-11-27-31/
     RDKit          3D

 26 29  0  0  0  0  0  0  0  0999 V2000
  -28.0162   -0.8135   28.8779 C   0  0  0  0  0  0  0  0  0  0  0  0
  -27.0636   -0.1190   28.6079 C   0  0  0  0  0  0  0  0  0  0  0  0
  -26.8756    1.1325   28.9134 C   0  0  0  0  0  0  0  0  0  0  0  0
  -25.6883    1.9515   28.5672 C   0  0  0  0  0  0  0  0  0  0  0  0
  -24.6394    1.2834   27.8753 C   0  0  0  0  0  0  0  0  0  0  0  0
  -24.8068   -0.0513   27.6040 C   0  0  0  0  0  0  0  0  0  0  0  0
  -25.9019   -0.7670   27.9511 C   0  0  0  0  0  0  0  0  0  0  0  0
  -28.6455   -0.5282   30.2428 C   0  0  0  0  0  0  0  0  0  0  0  0
  -29.5544   -1.0303   30.6491 C   0  0  0  0  0  0  0  0  0  0  0  0
  -30.1657   -0.8377   31.9377 C   0  0  0  0  0  0  0  0  0  0  0  0
  -23.4526    1.9904   27.4567 C   0  0  0  0  0  0  0  0  0  0  0  0
  -31.2486   -1.4635   32.4593 C   0  0  0  0  0  0  0  0  0  0  0  0
  -29.4721    0.1754   32.8418 C   0  0  0  0  0  0  0  0  0  0  0  0
  -28.3393    0.7628   32.3258 C   0  0  0  0  0  0  0  0  0  0  0  0
  -27.8927    0.4509   31.0961 C   0  0  0  0  0  0  0  0  0  0  0  0
  -27.4225    1.5734   30.1994 N   0  0  0  0  0  0  0  0  0  0  0  0
  -28.4538    2.5670   29.9046 C   0  0  0  0  0  0  0  0  0  0  0  0
  -22.3951    1.4034   27.6634 F   0  0  0  0  0  0  0  0  0  0  0  0
  -23.4798    2.4151   26.1651 F   0  0  0  0  0  0  0  0  0  0  0  0
  -23.3460    3.2256   28.1510 F   0  0  0  0  0  0  0  0  0  0  0  0
  -29.2218    2.6294   29.0061 C   0  0  0  0  0  0  0  0  0  0  0  0
  -30.1634    3.6335   28.8568 C   0  0  0  0  0  0  0  0  0  0  0  0
  -27.9102    3.9885   30.2753 C   0  0  0  0  0  0  0  0  0  0  0  0
  -28.8113    5.0712   30.2892 C   0  0  0  0  0  0  0  0  0  0  0  0
  -29.8119    4.9383   29.2661 C   0  0  0  0  0  0  0  0  0  0  0  0
  -30.2277   -1.9806   29.9856 F   0  0  0  0  0  0  0  0  0  0  0  0
  2  3  1  0
  3  4  1  0
  4  5  1  0
  5  6  1  0
  2  7  1  0
  6  7  1  0
  1  8  1  0
  5 11  1  0
  3 16  1  0
 15 16  1  0
 16 17  1  0
 11 18  1  0
 11 19  1  0
 11 20  1  0
  9 26  1  0
 12 10  1  0
  2  1  1  0
 17 21  2  0
 21 22  1  0
 22 25  2  0
 25 24  1  0
 24 23  2  0
 23 17  1  0
  8  9  2  0
  9 10  1  0
 10 13  2  0
 13 14  1  0
 14 15  2  0
 15  8  1  0
M  END

$$$$
