No_3908-gen_results/8p0m/2024-11-27-11-27-31/
     RDKit          3D

 22 24  0  0  0  0  0  0  0  0999 V2000
  -28.0162   -0.8135   28.8779 C   0  0  0  0  0  0  0  0  0  0  0  0
  -27.0636   -0.1189   28.6079 C   0  0  0  0  0  0  0  0  0  0  0  0
  -26.9716    0.7139   27.5060 C   0  0  0  0  0  0  0  0  0  0  0  0
  -28.1053    0.7744   26.6421 C   0  0  0  0  0  0  0  0  0  0  0  0
  -29.2041    0.1179   27.0477 C   0  0  0  0  0  0  0  0  0  0  0  0
  -29.2127   -0.6088   28.1281 C   0  0  0  0  0  0  0  0  0  0  0  0
  -25.7106    1.4519   27.1380 C   0  0  0  0  0  0  0  0  0  0  0  0
  -25.3772    2.0455   26.1737 C   0  0  0  0  0  0  0  0  0  0  0  0
  -24.0750    2.7193   25.9782 C   0  0  0  0  0  0  0  0  0  0  0  0
  -23.0770    2.4988   26.9483 C   0  0  0  0  0  0  0  0  0  0  0  0
  -23.3639    1.6220   28.0103 C   0  0  0  0  0  0  0  0  0  0  0  0
  -24.6236    1.0878   28.1748 C   0  0  0  0  0  0  0  0  0  0  0  0
  -30.4028    0.2680   26.1859 C   0  0  0  0  0  0  0  0  0  0  0  0
  -31.2313   -0.7712   26.0871 N   0  0  0  0  0  0  0  0  0  0  0  0
  -30.8277    1.3449   25.8067 O   0  0  0  0  0  0  0  0  0  0  0  0
  -31.0099   -2.0497   26.5811 C   0  0  0  0  0  0  0  0  0  0  0  0
  -32.3611   -2.6739   27.0167 C   0  0  0  0  0  0  0  0  0  0  0  0
  -33.3011   -2.6826   26.0947 C   0  0  0  0  0  0  0  0  0  0  0  0
  -33.3974   -1.4689   25.1973 C   0  0  0  0  0  0  0  0  0  0  0  0
  -32.4094   -0.5744   25.3790 C   0  0  0  0  0  0  0  0  0  0  0  0
  -22.3477    1.4360   28.8863 O   0  0  0  0  0  0  0  0  0  0  0  0
  -21.5792    0.3399   28.4990 C   0  0  0  0  0  0  0  0  0  0  0  0
  3  7  1  0
  5 13  1  0
 13 14  1  0
 13 15  2  0
 14 16  1  0
 17 18  1  0
 14 20  1  0
 19 20  1  0
 11 21  1  0
 21 22  1  0
 16 17  1  0
 18 19  1  0
  1  2  2  0
  2  3  1  0
  3  4  2  0
  4  5  1  0
  5  6  2  0
  6  1  1  0
  7  8  2  0
  8  9  1  0
  9 10  2  0
 10 11  1  0
 11 12  2  0
 12  7  1  0
M  END

$$$$
