No_3493-gen_results/8p0m/2024-11-27-11-27-31/
     RDKit          3D

 35 37  0  0  0  0  0  0  0  0999 V2000
  -28.0162   -0.8135   28.8779 C   0  0  0  0  0  0  0  0  0  0  0  0
  -27.0636   -0.1189   28.6079 C   0  0  0  0  0  0  0  0  0  0  0  0
  -27.0010    0.6913   27.4910 C   0  0  0  0  0  0  0  0  0  0  0  0
  -28.1373    0.7363   26.6350 C   0  0  0  0  0  0  0  0  0  0  0  0
  -29.2360    0.0765   27.0690 C   0  0  0  0  0  0  0  0  0  0  0  0
  -29.2177   -0.6429   28.1747 C   0  0  0  0  0  0  0  0  0  0  0  0
  -30.6116    0.1653   26.0710 Cl  0  0  0  0  0  0  0  0  0  0  0  0
  -25.7122   -0.2157   29.4104 C   0  0  0  0  0  0  0  0  0  0  0  0
  -25.6324   -0.5789   30.4373 C   0  0  0  0  0  0  0  0  0  0  0  0
  -24.9646   -0.9350   31.4821 C   0  0  0  0  0  0  0  0  0  0  0  0
  -23.5293   -0.8541   31.2810 C   0  0  0  0  0  0  0  0  0  0  0  0
  -23.1458   -0.2886   29.9881 C   0  0  0  0  0  0  0  0  0  0  0  0
  -24.1956   -0.0551   29.0189 C   0  0  0  0  0  0  0  0  0  0  0  0
  -21.8823   -0.0981   29.6534 O   0  0  0  0  0  0  0  0  0  0  0  0
  -21.4622   -0.5439   28.4269 C   0  0  0  0  0  0  0  0  0  0  0  0
  -28.0816    1.5621   25.5613 O   0  0  0  0  0  0  0  0  0  0  0  0
  -30.4180   -1.2110   28.5019 O   0  0  0  0  0  0  0  0  0  0  0  0
  -30.4982   -1.7251   29.8075 C   0  0  0  0  0  0  0  0  0  0  0  0
  -31.8754   -1.8242   30.2028 C   0  0  0  0  0  0  0  0  0  0  0  0
  -32.7195   -1.3843   29.5963 O   0  0  0  0  0  0  0  0  0  0  0  0
  -32.1799   -2.7668   31.1634 O   0  0  0  0  0  0  0  0  0  0  0  0
  -29.5984   -2.2217   30.4955 O   0  0  0  0  0  0  0  0  0  0  0  0
  -27.1354    1.1684   24.7233 C   0  0  0  0  0  0  0  0  0  0  0  0
  -33.1805   -2.9920   31.6017 C   0  0  0  0  0  0  0  0  0  0  0  0
  -33.7458   -2.2696   32.6581 C   0  0  0  0  0  0  0  0  0  0  0  0
  -33.0431   -1.9222   33.5579 O   0  0  0  0  0  0  0  0  0  0  0  0
  -33.2191   -1.2260   34.5894 C   0  0  0  0  0  0  0  0  0  0  0  0
  -32.1337   -1.0516   35.4119 C   0  0  0  0  0  0  0  0  0  0  0  0
  -34.4340   -0.6052   34.8627 C   0  0  0  0  0  0  0  0  0  0  0  0
  -34.6019    0.1659   36.0445 C   0  0  0  0  0  0  0  0  0  0  0  0
  -32.3222   -0.2351   36.6454 C   0  0  0  0  0  0  0  0  0  0  0  0
  -33.5816    0.3384   36.9111 C   0  0  0  0  0  0  0  0  0  0  0  0
  -35.9255    0.7350   36.2592 C   0  0  0  0  0  0  0  0  0  0  0  0
  -36.1749    1.5189   37.1311 O   0  0  0  0  0  0  0  0  0  0  0  0
  -36.8863    0.1908   35.5716 O   0  0  0  0  0  0  0  0  0  0  0  0
  5  7  1  0
  2  8  1  0
 12 14  1  0
 14 15  1  0
  4 16  1  0
  6 17  1  0
 17 18  1  0
 18 19  1  0
 19 20  2  0
 19 21  1  0
 18 22  2  0
 16 23  1  0
 21 24  1  0
 24 25  1  0
 25 26  1  0
 26 27  1  0
 30 33  1  0
 33 34  2  0
 33 35  1  0
  1  2  2  0
  2  3  1  0
  3  4  2  0
  4  5  1  0
  5  6  2  0
  6  1  1  0
  8  9  2  0
  9 10  1  0
 10 11  2  0
 11 12  1  0
 12 13  2  0
 13  8  1  0
 27 28  2  0
 28 31  1  0
 31 32  2  0
 32 30  1  0
 30 29  2  0
 29 27  1  0
M  END

$$$$
