No_3148-gen_results/8p0m/2024-11-27-11-27-31/
     RDKit          3D

 13 13  0  0  0  0  0  0  0  0999 V2000
  -28.0544   -1.0498   28.7246 N   0  0  0  0  0  0  0  0  0  0  0  0
  -27.7460   -0.0733   29.0098 C   0  0  0  0  0  0  0  0  0  0  0  0
  -27.1737    0.7565   28.1070 C   0  0  0  0  0  0  0  0  0  0  0  0
  -27.2833    1.9936   28.2212 F   0  0  0  0  0  0  0  0  0  0  0  0
  -25.7265    0.5103   28.0504 F   0  0  0  0  0  0  0  0  0  0  0  0
  -27.5566    0.4575   26.8188 F   0  0  0  0  0  0  0  0  0  0  0  0
  -28.1934   -2.1702   29.8631 C   0  0  0  0  0  0  0  0  0  0  0  0
  -29.0735   -2.2175   30.5137 C   0  0  0  0  0  0  0  0  0  0  0  0
  -29.5450   -1.1541   30.9987 C   0  0  0  0  0  0  0  0  0  0  0  0
  -29.6742    0.1567   30.5127 C   0  0  0  0  0  0  0  0  0  0  0  0
  -28.5827    0.7984   29.8987 C   0  0  0  0  0  0  0  0  0  0  0  0
  -29.5329   -3.4625   30.8906 O   0  0  0  0  0  0  0  0  0  0  0  0
  -27.0417   -2.9476   29.8478 O   0  0  0  0  0  0  0  0  0  0  0  0
  1  2  1  0
  2  3  1  0
  3  4  1  0
  3  5  1  0
  3  6  1  0
  1  7  1  0
  7  8  1  0
  8  9  1  0
  9 10  2  0
  2 11  1  0
 10 11  1  0
  8 12  2  0
  7 13  2  0
M  END

$$$$
