No_3935-gen_results/8p0m/2024-11-27-11-27-31/
     RDKit          3D

 15 16  0  0  0  0  0  0  0  0999 V2000
  -28.1229   -1.3353   28.4874 O   0  0  0  0  0  0  0  0  0  0  0  0
  -28.5208   -0.4363   29.0779 C   0  0  0  0  0  0  0  0  0  0  0  0
  -27.6655    0.1129   30.0346 C   0  0  0  0  0  0  0  0  0  0  0  0
  -29.7419    0.1102   28.8873 N   0  0  0  0  0  0  0  0  0  0  0  0
  -27.8398    1.2287   30.6424 C   0  0  0  0  0  0  0  0  0  0  0  0
  -30.6012   -0.3458   28.0242 C   0  0  0  0  0  0  0  0  0  0  0  0
  -26.3652   -0.6286   30.3303 C   0  0  0  0  0  0  0  0  0  0  0  0
  -26.9238    1.7551   31.6460 C   0  0  0  0  0  0  0  0  0  0  0  0
  -25.4457   -0.0918   31.3202 C   0  0  0  0  0  0  0  0  0  0  0  0
  -25.7462    1.1051   31.9604 C   0  0  0  0  0  0  0  0  0  0  0  0
  -30.8233   -0.1219   26.9741 C   0  0  0  0  0  0  0  0  0  0  0  0
  -31.7682   -0.7666   26.0137 C   0  0  0  0  0  0  0  0  0  0  0  0
  -32.5445   -1.8059   26.5792 C   0  0  0  0  0  0  0  0  0  0  0  0
  -32.3073   -2.1454   27.9266 C   0  0  0  0  0  0  0  0  0  0  0  0
  -31.3867   -1.4687   28.7161 C   0  0  0  0  0  0  0  0  0  0  0  0
  1  2  2  0
  2  3  1  0
  2  4  1  0
  4  6  1  0
  3  5  2  0
  5  8  1  0
  8 10  2  0
 10  9  1  0
  9  7  2  0
  7  3  1  0
  6 11  2  0
 11 12  1  0
 12 13  2  0
 13 14  1  0
 14 15  2  0
 15  6  1  0
M  END

$$$$
