No_3499-gen_results/8p0m/2024-11-27-11-27-31/
     RDKit          3D

 19 21  0  0  0  0  0  0  0  0999 V2000
  -28.0162   -0.8135   28.8779 C   0  0  0  0  0  0  0  0  0  0  0  0
  -27.0636   -0.1190   28.6079 C   0  0  0  0  0  0  0  0  0  0  0  0
  -26.9716    0.7139   27.5060 C   0  0  0  0  0  0  0  0  0  0  0  0
  -28.1053    0.7744   26.6421 C   0  0  0  0  0  0  0  0  0  0  0  0
  -29.2008    0.1044   27.0527 C   0  0  0  0  0  0  0  0  0  0  0  0
  -29.2096   -0.6029   28.1853 C   0  0  0  0  0  0  0  0  0  0  0  0
  -30.3702    0.2264   26.1604 C   0  0  0  0  0  0  0  0  0  0  0  0
  -30.2454    0.3015   24.8693 C   0  0  0  0  0  0  0  0  0  0  0  0
  -28.9873    0.9826   24.3857 C   0  0  0  0  0  0  0  0  0  0  0  0
  -27.8778    1.0820   25.2420 C   0  0  0  0  0  0  0  0  0  0  0  0
  -28.0467   -1.5792   30.2135 C   0  0  0  0  0  0  0  0  0  0  0  0
  -27.0724   -2.3360   30.4626 O   0  0  0  0  0  0  0  0  0  0  0  0
  -29.0361   -1.5775   30.9657 O   0  0  0  0  0  0  0  0  0  0  0  0
  -25.6807    1.3587   27.0751 C   0  0  0  0  0  0  0  0  0  0  0  0
  -24.7462    1.8552   28.0937 C   0  0  0  0  0  0  0  0  0  0  0  0
  -23.4606    2.0964   27.6088 C   0  0  0  0  0  0  0  0  0  0  0  0
  -23.2387    2.2957   26.2336 C   0  0  0  0  0  0  0  0  0  0  0  0
  -25.2699    1.3717   25.7641 C   0  0  0  0  0  0  0  0  0  0  0  0
  -24.0328    1.7717   25.3733 C   0  0  0  0  0  0  0  0  0  0  0  0
  1 11  1  0
 11 12  2  0
 11 13  1  0
  3 14  1  0
  5  7  1  0
  7  8  2  0
  8  9  1  0
  9 10  2  0
 10  4  1  0
  1  2  2  0
  2  3  1  0
  3  4  2  0
  4  5  1  0
  5  6  2  0
  6  1  1  0
 14 15  2  0
 15 16  1  0
 16 17  2  0
 17 19  1  0
 19 18  2  0
 18 14  1  0
M  END

$$$$
