No_3809-gen_results/8p0m/2024-11-27-11-27-31/
     RDKit          3D

 23 25  0  0  0  0  0  0  0  0999 V2000
  -28.0162   -0.8135   28.8779 C   0  0  0  0  0  0  0  0  0  0  0  0
  -27.0636   -0.1189   28.6079 C   0  0  0  0  0  0  0  0  0  0  0  0
  -27.0010    0.6913   27.4910 C   0  0  0  0  0  0  0  0  0  0  0  0
  -25.8548    1.4825   27.0830 C   0  0  0  0  0  0  0  0  0  0  0  0
  -24.6901    1.4526   27.8807 C   0  0  0  0  0  0  0  0  0  0  0  0
  -24.7379    0.6010   29.0416 C   0  0  0  0  0  0  0  0  0  0  0  0
  -25.8234   -0.1688   29.3887 C   0  0  0  0  0  0  0  0  0  0  0  0
  -28.7125   -0.4634   30.1695 C   0  0  0  0  0  0  0  0  0  0  0  0
  -29.8024   -1.3264   30.6568 C   0  0  0  0  0  0  0  0  0  0  0  0
  -30.0663   -2.3642   29.9670 C   0  0  0  0  0  0  0  0  0  0  0  0
  -31.2421   -3.0597   30.4690 C   0  0  0  0  0  0  0  0  0  0  0  0
  -31.6216   -4.2815   29.7911 C   0  0  0  0  0  0  0  0  0  0  0  0
  -31.6494   -5.2891   30.4748 C   0  0  0  0  0  0  0  0  0  0  0  0
  -31.8690   -6.5876   29.8118 C   0  0  0  0  0  0  0  0  0  0  0  0
  -31.9479   -6.6323   28.4048 C   0  0  0  0  0  0  0  0  0  0  0  0
  -31.8024   -5.4604   27.6996 C   0  0  0  0  0  0  0  0  0  0  0  0
  -31.5605   -4.2682   28.3959 C   0  0  0  0  0  0  0  0  0  0  0  0
  -23.5088    2.1987   27.5675 C   0  0  0  0  0  0  0  0  0  0  0  0
  -23.2220    2.5588   26.3611 N   0  0  0  0  0  0  0  0  0  0  0  0
  -22.4757    2.1736   28.3780 O   0  0  0  0  0  0  0  0  0  0  0  0
  -31.1166   -3.1342   31.8488 C   0  0  0  0  0  0  0  0  0  0  0  0
  -30.8195   -1.9249   32.6887 C   0  0  0  0  0  0  0  0  0  0  0  0
  -29.9571   -1.1004   32.0581 C   0  0  0  0  0  0  0  0  0  0  0  0
  1  2  1  0
  1  8  2  3
  8  9  1  0
 11 12  1  0
  5 18  1  0
 18 19  2  0
 18 20  1  0
 12 13  2  0
 13 14  1  0
 14 15  2  0
 15 16  1  0
 16 17  2  0
 17 12  1  0
  2  3  2  0
  3  4  1  0
  4  5  2  0
  5  6  1  0
  6  7  2  0
  7  2  1  0
  9 10  2  0
 10 11  1  0
 11 21  2  0
 21 22  1  0
 22 23  2  0
 23  9  1  0
M  END

$$$$
