No_3373-gen_results/8p0m/2024-11-27-11-27-31/
     RDKit          3D

  9  8  0  0  0  0  0  0  0  0999 V2000
  -27.9505   -0.5786   29.0402 P   0  0  0  0  0  0  0  0  0  0  0  0
  -27.2401    0.0613   28.4283 O   0  0  0  0  0  0  0  0  0  0  0  0
  -27.2444   -1.9817   29.3768 O   0  0  0  0  0  0  0  0  0  0  0  0
  -28.1880   -0.0139   30.5262 O   0  0  0  0  0  0  0  0  0  0  0  0
  -29.3990   -0.9232   28.6479 O   0  0  0  0  0  0  0  0  0  0  0  0
  -26.0234    0.2622   28.4352 C   0  0  0  0  0  0  0  0  0  0  0  0
  -25.3776    1.0064   27.3203 C   0  0  0  0  0  0  0  0  0  0  0  0
  -23.9990    1.2402   27.5408 C   0  0  0  0  0  0  0  0  0  0  0  0
  -23.3216    2.3134   26.8539 C   0  0  0  0  0  0  0  0  0  0  0  0
  1  2  1  0
  1  3  2  0
  1  4  1  0
  1  5  1  0
  2  6  1  0
  6  7  1  0
  7  8  2  3
  8  9  1  0
M  END

$$$$
