No_3620-gen_results/8p0m/2024-11-27-11-27-31/
     RDKit          3D

 23 24  0  0  0  0  0  0  0  0999 V2000
  -28.0162   -0.8135   28.8779 C   0  0  0  0  0  0  0  0  0  0  0  0
  -28.4690   -0.7850   29.8287 C   0  0  0  0  0  0  0  0  0  0  0  0
  -28.1960    0.3478   28.0550 C   0  0  0  0  0  0  0  0  0  0  0  0
  -29.0191    1.3501   28.3782 C   0  0  0  0  0  0  0  0  0  0  0  0
  -29.4107    0.1803   30.3782 C   0  0  0  0  0  0  0  0  0  0  0  0
  -29.6059    1.2495   29.6193 C   0  0  0  0  0  0  0  0  0  0  0  0
  -27.4478    0.3799   26.7122 C   0  0  0  0  0  0  0  0  0  0  0  0
  -25.9806    0.2548   26.7837 C   0  0  0  0  0  0  0  0  0  0  0  0
  -25.3349   -0.0583   27.9448 C   0  0  0  0  0  0  0  0  0  0  0  0
  -24.0034    0.2847   28.0953 C   0  0  0  0  0  0  0  0  0  0  0  0
  -23.2295   -0.2108   29.2125 C   0  0  0  0  0  0  0  0  0  0  0  0
  -23.8406   -1.0799   30.0646 C   0  0  0  0  0  0  0  0  0  0  0  0
  -25.0889   -1.5094   29.9056 C   0  0  0  0  0  0  0  0  0  0  0  0
  -25.6795   -1.1556   28.7412 C   0  0  0  0  0  0  0  0  0  0  0  0
  -26.1457   -2.0789   27.9397 F   0  0  0  0  0  0  0  0  0  0  0  0
  -25.2998    0.6716   25.5635 C   0  0  0  0  0  0  0  0  0  0  0  0
  -27.8908    1.4578   25.9356 C   0  0  0  0  0  0  0  0  0  0  0  0
  -30.5529    2.3835   30.0587 C   0  0  0  0  0  0  0  0  0  0  0  0
  -30.3888    2.9606   31.1699 C   0  0  0  0  0  0  0  0  0  0  0  0
  -31.5876    2.7103   29.1592 C   0  0  0  0  0  0  0  0  0  0  0  0
  -29.4659    2.6380   31.9295 F   0  0  0  0  0  0  0  0  0  0  0  0
  -31.5973    2.9905   31.9318 O   0  0  0  0  0  0  0  0  0  0  0  0
  -31.4752    3.8654   28.4015 C   0  0  0  0  0  0  0  0  0  0  0  0
  3  7  1  0
  7  8  1  0
  8  9  1  0
 14 15  1  0
  8 16  1  0
  7 17  1  0
  6 18  1  0
 18 19  1  0
 18 20  1  0
 19 21  1  0
 19 22  1  0
 20 23  2  0
  9 10  2  0
 10 11  1  0
 11 12  2  0
 12 13  1  0
 13 14  2  0
 14  9  1  0
  1  2  2  0
  2  5  1  0
  5  6  2  0
  6  4  1  0
  4  3  2  0
  3  1  1  0
M  END

$$$$
