No_359-gen_results/8p0m/2024-11-27-11-27-31/
     RDKit          3D

 27 29  0  0  0  0  0  0  0  0999 V2000
  -28.0727   -1.2542   28.5316 F   0  0  0  0  0  0  0  0  0  0  0  0
  -28.2662   -0.4214   29.1931 C   0  0  0  0  0  0  0  0  0  0  0  0
  -28.1839    0.5652   29.0416 C   0  0  0  0  0  0  0  0  0  0  0  0
  -28.3784    1.7304   30.0191 C   0  0  0  0  0  0  0  0  0  0  0  0
  -28.1387    3.1419   29.8441 C   0  0  0  0  0  0  0  0  0  0  0  0
  -27.6113    3.4763   28.5274 C   0  0  0  0  0  0  0  0  0  0  0  0
  -27.3590    2.4730   27.5683 C   0  0  0  0  0  0  0  0  0  0  0  0
  -27.5955    1.1832   27.8887 C   0  0  0  0  0  0  0  0  0  0  0  0
  -27.6769   -0.9224   30.4248 F   0  0  0  0  0  0  0  0  0  0  0  0
  -27.3208    4.8990   28.2543 C   0  0  0  0  0  0  0  0  0  0  0  0
  -26.0633    5.3583   28.8435 C   0  0  0  0  0  0  0  0  0  0  0  0
  -25.3465    6.2832   28.0281 C   0  0  0  0  0  0  0  0  0  0  0  0
  -24.1319    6.8642   28.5143 C   0  0  0  0  0  0  0  0  0  0  0  0
  -24.2407    8.0883   29.0367 C   0  0  0  0  0  0  0  0  0  0  0  0
  -25.2296    8.5757   29.7790 C   0  0  0  0  0  0  0  0  0  0  0  0
  -25.1472    9.8593   30.4000 C   0  0  0  0  0  0  0  0  0  0  0  0
  -24.0046   10.5589   30.2644 C   0  0  0  0  0  0  0  0  0  0  0  0
  -23.0067    8.9493   28.9455 C   0  0  0  0  0  0  0  0  0  0  0  0
  -22.9397   10.1673   29.5405 C   0  0  0  0  0  0  0  0  0  0  0  0
  -28.3743    5.8326   28.7240 C   0  0  0  0  0  0  0  0  0  0  0  0
  -27.1120    5.0075   26.6725 C   0  0  0  0  0  0  0  0  0  0  0  0
  -25.8060    6.3096   26.7057 C   0  0  0  0  0  0  0  0  0  0  0  0
  -28.9499    6.6372   28.0763 C   0  0  0  0  0  0  0  0  0  0  0  0
  -29.9416    7.5805   28.5832 C   0  0  0  0  0  0  0  0  0  0  0  0
  -30.4647    8.6182   27.8587 C   0  0  0  0  0  0  0  0  0  0  0  0
  -30.0776    8.7578   26.5157 C   0  0  0  0  0  0  0  0  0  0  0  0
  -29.0617    7.9895   25.9801 C   0  0  0  0  0  0  0  0  0  0  0  0
  1  2  1  0
  2  9  1  0
  6 10  1  0
 10 11  1  0
 11 12  2  0
 12 13  1  0
 10 20  1  0
 10 21  1  0
 12 22  1  0
 21 22  1  0
 20 23  2  3
 23 24  1  0
 24 25  2  3
 25 26  1  0
 26 27  2  0
 13 14  1  0
  2  3  1  0
 14 15  2  0
 15 16  1  0
 16 17  2  0
 17 19  1  0
 19 18  2  0
 18 14  1  0
  3  4  2  0
  4  5  1  0
  5  6  2  0
  6  7  1  0
  7  8  2  0
  8  3  1  0
M  END

$$$$
