No_3391-gen_results/8p0m/2024-11-27-11-27-31/
     RDKit          3D

 13 14  0  0  0  0  0  0  0  0999 V2000
  -28.0162   -0.8135   28.8779 C   0  0  0  0  0  0  0  0  0  0  0  0
  -28.4690   -0.7850   29.8287 C   0  0  0  0  0  0  0  0  0  0  0  0
  -28.1816    0.4277   28.1134 C   0  0  0  0  0  0  0  0  0  0  0  0
  -27.4498    0.6435   26.8500 C   0  0  0  0  0  0  0  0  0  0  0  0
  -26.1815    0.0357   26.7145 C   0  0  0  0  0  0  0  0  0  0  0  0
  -25.7530   -0.9101   27.6815 C   0  0  0  0  0  0  0  0  0  0  0  0
  -26.5502   -1.2250   28.7228 C   0  0  0  0  0  0  0  0  0  0  0  0
  -28.3925   -2.0077   30.6416 N   0  0  0  0  0  0  0  0  0  0  0  0
  -27.2105   -2.7078   30.5631 C   0  0  0  0  0  0  0  0  0  0  0  0
  -26.1997   -2.3940   29.5706 C   0  0  0  0  0  0  0  0  0  0  0  0
  -29.8822   -0.2773   30.1446 C   0  0  0  0  0  0  0  0  0  0  0  0
  -30.2654    0.0060   31.1475 N   0  0  0  0  0  0  0  0  0  0  0  0
  -30.7138    0.5473   31.8671 C   0  0  0  0  0  0  0  0  0  0  0  0
  2 11  1  0
 11 12  1  0
 12 13  2  0
  1  2  2  0
  2  8  1  0
  8  9  2  0
  9 10  1  0
 10  7  2  0
  1  3  1  0
  3  4  2  0
  4  5  1  0
  5  6  2  0
  6  7  1  0
  7  1  1  0
M  END

$$$$
