No_3896-gen_results/8p0m/2024-11-27-11-27-31/
     RDKit          3D

 18 19  0  0  0  0  0  0  0  0999 V2000
  -28.0162   -0.8135   28.8779 C   0  0  0  0  0  0  0  0  0  0  0  0
  -27.0636   -0.1190   28.6079 C   0  0  0  0  0  0  0  0  0  0  0  0
  -26.9716    0.7139   27.5060 C   0  0  0  0  0  0  0  0  0  0  0  0
  -25.8205    1.4909   27.1160 C   0  0  0  0  0  0  0  0  0  0  0  0
  -24.6562    1.4242   27.9180 C   0  0  0  0  0  0  0  0  0  0  0  0
  -24.6847    0.5901   29.0659 C   0  0  0  0  0  0  0  0  0  0  0  0
  -25.8099   -0.1266   29.3338 C   0  0  0  0  0  0  0  0  0  0  0  0
  -29.2185   -0.0422   29.3127 C   0  0  0  0  0  0  0  0  0  0  0  0
  -30.2802   -0.8075   29.8362 C   0  0  0  0  0  0  0  0  0  0  0  0
  -23.4679    2.2043   27.6013 C   0  0  0  0  0  0  0  0  0  0  0  0
  -23.2801    2.7366   26.5147 O   0  0  0  0  0  0  0  0  0  0  0  0
  -22.3467    1.9853   28.3312 O   0  0  0  0  0  0  0  0  0  0  0  0
  -31.5600   -0.7102   29.3616 C   0  0  0  0  0  0  0  0  0  0  0  0
  -32.5450   -1.5884   29.6429 C   0  0  0  0  0  0  0  0  0  0  0  0
  -32.2875   -2.6223   30.5736 C   0  0  0  0  0  0  0  0  0  0  0  0
  -31.0196   -2.7817   31.1170 C   0  0  0  0  0  0  0  0  0  0  0  0
  -29.9757   -1.9179   30.6876 C   0  0  0  0  0  0  0  0  0  0  0  0
  -28.8250    0.9522   30.2016 O   0  0  0  0  0  0  0  0  0  0  0  0
  1  2  2  3
  2  3  1  0
  3  4  1  0
  4  5  1  0
  5  6  1  0
  2  7  1  0
  6  7  1  0
  1  8  1  0
  8  9  1  0
  5 10  1  0
 10 11  2  0
 10 12  1  0
  8 18  1  0
  9 13  2  0
 13 14  1  0
 14 15  2  0
 15 16  1  0
 16 17  2  0
 17  9  1  0
M  END

$$$$
