No_3242-gen_results/8p0m/2024-11-27-11-27-31/
     RDKit          3D

 32 35  0  0  0  0  0  0  0  0999 V2000
  -28.0162   -0.8135   28.8779 C   0  0  0  0  0  0  0  0  0  0  0  0
  -28.4690   -0.7850   29.8287 C   0  0  0  0  0  0  0  0  0  0  0  0
  -28.1816    0.4277   28.1134 C   0  0  0  0  0  0  0  0  0  0  0  0
  -27.4498    0.6435   26.8500 C   0  0  0  0  0  0  0  0  0  0  0  0
  -26.1815    0.0357   26.7145 C   0  0  0  0  0  0  0  0  0  0  0  0
  -25.7800   -0.9326   27.6938 C   0  0  0  0  0  0  0  0  0  0  0  0
  -26.5568   -1.2134   28.7413 C   0  0  0  0  0  0  0  0  0  0  0  0
  -28.3021   -1.9782   30.6613 N   0  0  0  0  0  0  0  0  0  0  0  0
  -29.5330   -0.1613   30.2779 O   0  0  0  0  0  0  0  0  0  0  0  0
  -29.1652   -2.4095   31.8078 C   0  0  0  0  0  0  0  0  0  0  0  0
  -25.2943    0.3227   25.6009 C   0  0  0  0  0  0  0  0  0  0  0  0
  -27.2132   -2.8463   30.4707 C   0  0  0  0  0  0  0  0  0  0  0  0
  -26.1591   -2.4285   29.5236 C   0  0  0  0  0  0  0  0  0  0  0  0
  -24.1214    1.0300   25.9179 C   0  0  0  0  0  0  0  0  0  0  0  0
  -24.0153    2.0847   26.6585 C   0  0  0  0  0  0  0  0  0  0  0  0
  -22.7471    2.5362   27.0606 C   0  0  0  0  0  0  0  0  0  0  0  0
  -22.4630    2.9604   28.3528 C   0  0  0  0  0  0  0  0  0  0  0  0
  -23.6630    2.9166   29.2069 C   0  0  0  0  0  0  0  0  0  0  0  0
  -24.9131    2.5539   28.7877 C   0  0  0  0  0  0  0  0  0  0  0  0
  -25.0501    2.1120   27.5389 C   0  0  0  0  0  0  0  0  0  0  0  0
  -26.0153    2.7895   29.7812 C   0  0  0  0  0  0  0  0  0  0  0  0
  -26.0605    3.8168   30.4730 O   0  0  0  0  0  0  0  0  0  0  0  0
  -26.9204    1.8352   29.8787 O   0  0  0  0  0  0  0  0  0  0  0  0
  -29.7358   -3.6118   31.5665 C   0  0  0  0  0  0  0  0  0  0  0  0
  -30.8914   -3.5533   31.3648 N   0  0  0  0  0  0  0  0  0  0  0  0
  -31.6316   -4.4012   30.6650 C   0  0  0  0  0  0  0  0  0  0  0  0
  -31.4129   -4.6932   29.5622 C   0  0  0  0  0  0  0  0  0  0  0  0
  -31.9613   -5.2298   28.5742 C   0  0  0  0  0  0  0  0  0  0  0  0
  -33.2847   -5.3226   28.7865 C   0  0  0  0  0  0  0  0  0  0  0  0
  -33.8665   -5.0079   29.9759 C   0  0  0  0  0  0  0  0  0  0  0  0
  -33.0692   -4.3780   30.9077 C   0  0  0  0  0  0  0  0  0  0  0  0
  -31.6358   -2.5867   32.2264 C   0  0  0  0  0  0  0  0  0  0  0  0
  1  2  1  0
  2  8  1  0
  2  9  2  0
  8 10  1  0
  5 11  1  0
  8 12  1  0
  7 13  1  0
 11 14  1  0
 14 15  1  0
 19 21  1  0
 21 22  2  0
 21 23  1  0
 10 24  1  0
 24 25  1  0
 25 26  1  0
 25 32  1  0
 13 12  1  0
 15 16  2  0
 16 17  1  0
 17 18  2  0
 18 19  1  0
 19 20  2  0
 20 15  1  0
  1  3  2  0
  3  4  1  0
  4  5  2  0
  5  6  1  0
  6  7  2  0
  7  1  1  0
 26 27  2  0
 27 28  1  0
 28 29  2  0
 29 30  1  0
 30 31  2  0
 31 26  1  0
M  END

$$$$
