No_3010-gen_results/8p0m/2024-11-27-11-27-31/
     RDKit          3D

  5  4  0  0  0  0  0  0  0  0999 V2000
  -28.0162   -0.8135   28.8779 C   0  0  0  0  0  0  0  0  0  0  0  0
  -27.0636   -0.1189   28.6079 C   0  0  0  0  0  0  0  0  0  0  0  0
  -25.5257   -0.2773   29.2605 Br  0  0  0  0  0  0  0  0  0  0  0  0
  -27.8171   -1.5066   30.1613 C   0  0  0  0  0  0  0  0  0  0  0  0
  -26.6466   -1.9975   30.6557 C   0  0  0  0  0  0  0  0  0  0  0  0
  1  2  1  0
  2  3  1  0
  1  4  1  0
  4  5  2  0
M  END

$$$$
