No_354-gen_results/8p0m/2024-11-27-11-27-31/
     RDKit          3D

 18 19  0  0  0  0  0  0  0  0999 V2000
  -28.0162   -0.8135   28.8779 C   0  0  0  0  0  0  0  0  0  0  0  0
  -27.0636   -0.1190   28.6079 C   0  0  0  0  0  0  0  0  0  0  0  0
  -25.7647   -0.3897   29.0360 C   0  0  0  0  0  0  0  0  0  0  0  0
  -25.5296   -1.5302   29.9014 C   0  0  0  0  0  0  0  0  0  0  0  0
  -26.6888   -2.2893   30.1810 C   0  0  0  0  0  0  0  0  0  0  0  0
  -27.8727   -1.9508   29.7373 C   0  0  0  0  0  0  0  0  0  0  0  0
  -28.9304   -2.7298   30.1154 O   0  0  0  0  0  0  0  0  0  0  0  0
  -24.6941    0.5880   28.7387 C   0  0  0  0  0  0  0  0  0  0  0  0
  -23.4699    0.3215   29.2511 C   0  0  0  0  0  0  0  0  0  0  0  0
  -22.4014    1.2064   28.9341 C   0  0  0  0  0  0  0  0  0  0  0  0
  -24.7868    1.6018   27.8682 C   0  0  0  0  0  0  0  0  0  0  0  0
  -23.7849    2.4601   27.4733 C   0  0  0  0  0  0  0  0  0  0  0  0
  -22.5121    2.2439   28.0169 C   0  0  0  0  0  0  0  0  0  0  0  0
  -28.7774   -4.0007   30.6336 C   0  0  0  0  0  0  0  0  0  0  0  0
  -29.8197   -4.2968   31.6067 C   0  0  0  0  0  0  0  0  0  0  0  0
  -29.7405   -5.4405   32.0913 O   0  0  0  0  0  0  0  0  0  0  0  0
  -30.8867   -3.6942   31.5792 O   0  0  0  0  0  0  0  0  0  0  0  0
  -24.0085    3.6678   26.3100 Cl  0  0  0  0  0  0  0  0  0  0  0  0
  6  7  1  0
  3  8  1  0
  7 14  1  0
 14 15  1  0
 15 16  2  0
 15 17  1  0
 12 18  1  0
  1  2  2  0
  2  3  1  0
  3  4  2  0
  4  5  1  0
  5  6  2  0
  6  1  1  0
  8  9  2  0
  9 10  1  0
 10 13  2  0
 13 12  1  0
 12 11  2  0
 11  8  1  0
M  END

$$$$
