No_338-gen_results/8p0m/2024-11-27-11-27-31/
     RDKit          3D

 35 38  0  0  0  0  0  0  0  0999 V2000
  -28.0162   -0.8135   28.8779 C   0  0  0  0  0  0  0  0  0  0  0  0
  -27.0636   -0.1189   28.6079 C   0  0  0  0  0  0  0  0  0  0  0  0
  -27.0010    0.6913   27.4910 C   0  0  0  0  0  0  0  0  0  0  0  0
  -28.1373    0.7363   26.6350 C   0  0  0  0  0  0  0  0  0  0  0  0
  -29.2360    0.0765   27.0690 C   0  0  0  0  0  0  0  0  0  0  0  0
  -29.2177   -0.6429   28.1747 C   0  0  0  0  0  0  0  0  0  0  0  0
  -28.0030   -1.6604   30.1266 C   0  0  0  0  0  0  0  0  0  0  0  0
  -27.0435   -2.4948   30.2691 N   0  0  0  0  0  0  0  0  0  0  0  0
  -27.2614   -3.8473   29.9657 C   0  0  0  0  0  0  0  0  0  0  0  0
  -28.3196   -4.3933   30.0739 O   0  0  0  0  0  0  0  0  0  0  0  0
  -26.0957   -4.5652   29.6976 N   0  0  0  0  0  0  0  0  0  0  0  0
  -28.0787    1.6088   25.4447 C   0  0  0  0  0  0  0  0  0  0  0  0
  -26.9891    1.7635   24.8283 C   0  0  0  0  0  0  0  0  0  0  0  0
  -29.3174    2.1729   24.9722 C   0  0  0  0  0  0  0  0  0  0  0  0
  -30.0312    2.9872   25.7320 C   0  0  0  0  0  0  0  0  0  0  0  0
  -31.2488    3.5833   25.2650 C   0  0  0  0  0  0  0  0  0  0  0  0
  -31.6810    3.2433   23.9954 C   0  0  0  0  0  0  0  0  0  0  0  0
  -30.9558    2.3768   23.1899 C   0  0  0  0  0  0  0  0  0  0  0  0
  -29.7751    1.8325   23.6491 C   0  0  0  0  0  0  0  0  0  0  0  0
  -25.6620   -2.0628   30.4042 C   0  0  0  0  0  0  0  0  0  0  0  0
  -24.7894   -4.1368   29.5019 C   0  0  0  0  0  0  0  0  0  0  0  0
  -24.6150   -2.7870   29.9110 C   0  0  0  0  0  0  0  0  0  0  0  0
  -25.7902    1.2663   26.9439 C   0  0  0  0  0  0  0  0  0  0  0  0
  -25.6959    1.7888   25.6498 C   0  0  0  0  0  0  0  0  0  0  0  0
  -32.9382    3.8239   23.4616 C   0  0  0  0  0  0  0  0  0  0  0  0
  -33.1726    3.9614   22.3037 O   0  0  0  0  0  0  0  0  0  0  0  0
  -33.6593    4.5463   24.3361 N   0  0  0  0  0  0  0  0  0  0  0  0
  -34.8849    5.2289   23.9201 C   0  0  0  0  0  0  0  0  0  0  0  0
  -24.4569    1.0426   27.6419 C   0  0  0  0  0  0  0  0  0  0  0  0
  -24.0150    2.1049   28.4996 C   0  0  0  0  0  0  0  0  0  0  0  0
  -22.8090    1.9291   29.0342 N   0  0  0  0  0  0  0  0  0  0  0  0
  -24.7116    3.1499   28.5916 O   0  0  0  0  0  0  0  0  0  0  0  0
  -35.2852    6.0575   24.7136 C   0  0  0  0  0  0  0  0  0  0  0  0
  -34.8233    6.2047   26.0562 C   0  0  0  0  0  0  0  0  0  0  0  0
  -33.6246    5.5792   26.3887 C   0  0  0  0  0  0  0  0  0  0  0  0
  1  7  1  0
  7  8  1  0
  8  9  1  0
  9 10  2  0
  9 11  1  0
 12 14  1  0
  8 20  1  0
 11 21  1  0
 21 22  1  0
 17 25  1  0
 25 26  2  0
 25 27  1  0
 27 28  1  0
 23 29  1  0
 29 30  1  0
 30 31  1  0
 30 32  2  0
 28 33  2  3
 33 34  1  0
 34 35  2  0
 22 20  1  0
  1  2  2  0
  2  3  1  0
  4  5  1  0
  5  6  2  0
  6  1  1  0
  3  4  2  0
  4 12  1  0
 12 13  2  0
 13 24  1  0
 24 23  2  0
 23  3  1  0
 14 15  2  0
 15 16  1  0
 16 17  2  0
 17 18  1  0
 18 19  2  0
 19 14  1  0
M  END

$$$$
