No_3816-gen_results/8p0m/2024-11-27-11-27-31/
     RDKit          3D

 16 17  0  0  0  0  0  0  0  0999 V2000
  -28.0162   -0.8135   28.8779 C   0  0  0  0  0  0  0  0  0  0  0  0
  -28.4690   -0.7850   29.8287 C   0  0  0  0  0  0  0  0  0  0  0  0
  -27.0871    0.2903   28.6377 C   0  0  0  0  0  0  0  0  0  0  0  0
  -26.7676    1.0274   29.4716 C   0  0  0  0  0  0  0  0  0  0  0  0
  -28.2764    0.0268   31.0145 C   0  0  0  0  0  0  0  0  0  0  0  0
  -27.3287    1.0538   30.7535 C   0  0  0  0  0  0  0  0  0  0  0  0
  -25.7516    2.1742   29.2500 C   0  0  0  0  0  0  0  0  0  0  0  0
  -25.3534    2.9200   29.9889 N   0  0  0  0  0  0  0  0  0  0  0  0
  -25.1377    2.2575   27.8875 C   0  0  0  0  0  0  0  0  0  0  0  0
  -25.0942    1.5142   26.8956 C   0  0  0  0  0  0  0  0  0  0  0  0
  -24.4478    1.7936   25.7567 C   0  0  0  0  0  0  0  0  0  0  0  0
  -23.5470    2.7304   25.7747 C   0  0  0  0  0  0  0  0  0  0  0  0
  -24.1764    3.4024   27.7601 C   0  0  0  0  0  0  0  0  0  0  0  0
  -23.5074    3.7285   26.7489 C   0  0  0  0  0  0  0  0  0  0  0  0
  -24.7579    2.5047   31.2079 C   0  0  0  0  0  0  0  0  0  0  0  0
  -24.5564    3.5915   32.2074 C   0  0  0  0  0  0  0  0  0  0  0  0
  4  7  1  0
  7  8  2  3
  7  9  1  0
  8 15  1  0
 15 16  2  0
  1  2  2  0
  2  5  1  0
  5  6  2  0
  6  4  1  0
  4  3  2  0
  3  1  1  0
  9 10  2  0
 10 11  1  0
 11 12  2  0
 12 14  1  0
 14 13  2  0
 13  9  1  0
M  END

$$$$
