No_3636-gen_results/8p0m/2024-11-27-11-27-31/
     RDKit          3D

  7  6  0  0  0  0  0  0  0  0999 V2000
  -28.1493   -0.8198   28.9079 Cl  0  0  0  0  0  0  0  0  0  0  0  0
  -27.8339    0.4961   29.0598 C   0  0  0  0  0  0  0  0  0  0  0  0
  -27.6022    1.0128   30.2974 C   0  0  0  0  0  0  0  0  0  0  0  0
  -27.7182    0.1626   31.4900 C   0  0  0  0  0  0  0  0  0  0  0  0
  -28.0543   -1.1901   31.1837 C   0  0  0  0  0  0  0  0  0  0  0  0
  -28.2355   -1.6742   30.0273 C   0  0  0  0  0  0  0  0  0  0  0  0
  -28.5412   -2.9623   29.9204 F   0  0  0  0  0  0  0  0  0  0  0  0
  1  2  1  0
  2  3  2  3
  3  4  1  0
  4  5  2  3
  5  6  1  0
  6  7  1  0
M  END

$$$$
