No_3689-gen_results/8p0m/2024-11-27-11-27-31/
     RDKit          3D

 26 27  0  0  0  0  0  0  0  0999 V2000
  -28.0162   -0.8135   28.8779 C   0  0  0  0  0  0  0  0  0  0  0  0
  -27.0636   -0.1189   28.6079 C   0  0  0  0  0  0  0  0  0  0  0  0
  -25.7647   -0.3897   29.0360 C   0  0  0  0  0  0  0  0  0  0  0  0
  -25.5296   -1.5302   29.9014 C   0  0  0  0  0  0  0  0  0  0  0  0
  -26.6577   -2.2915   30.2035 C   0  0  0  0  0  0  0  0  0  0  0  0
  -27.8548   -1.9555   29.7630 C   0  0  0  0  0  0  0  0  0  0  0  0
  -24.5441    0.4126   28.7379 C   0  0  0  0  0  0  0  0  0  0  0  0
  -23.3232    0.0476   29.0499 C   0  0  0  0  0  0  0  0  0  0  0  0
  -22.1997    0.8411   28.7194 C   0  0  0  0  0  0  0  0  0  0  0  0
  -22.3632    1.8394   27.7172 C   0  0  0  0  0  0  0  0  0  0  0  0
  -24.6043    1.5165   27.8119 C   0  0  0  0  0  0  0  0  0  0  0  0
  -23.5582    2.1898   27.3588 C   0  0  0  0  0  0  0  0  0  0  0  0
  -28.9349   -2.7083   30.1230 O   0  0  0  0  0  0  0  0  0  0  0  0
  -30.0509   -2.1516   30.6025 C   0  0  0  0  0  0  0  0  0  0  0  0
  -31.1259   -2.7810   30.2133 C   0  0  0  0  0  0  0  0  0  0  0  0
  -32.0211   -2.2791   29.6681 O   0  0  0  0  0  0  0  0  0  0  0  0
  -31.3169   -4.0876   30.4983 O   0  0  0  0  0  0  0  0  0  0  0  0
  -23.7747    3.3213   26.4062 C   0  0  0  0  0  0  0  0  0  0  0  0
  -24.7459    4.3544   26.8735 C   0  0  0  0  0  0  0  0  0  0  0  0
  -25.8001    3.9968   27.4406 N   0  0  0  0  0  0  0  0  0  0  0  0
  -26.1612    4.5108   28.5702 C   0  0  0  0  0  0  0  0  0  0  0  0
  -25.7041    5.8228   28.7637 C   0  0  0  0  0  0  0  0  0  0  0  0
  -26.0025    6.4765   30.0363 C   0  0  0  0  0  0  0  0  0  0  0  0
  -25.6413    7.8089   30.2464 C   0  0  0  0  0  0  0  0  0  0  0  0
  -24.8780    8.4785   29.1944 C   0  0  0  0  0  0  0  0  0  0  0  0
  -24.5906    7.8546   28.0124 C   0  0  0  0  0  0  0  0  0  0  0  0
  3  7  1  0
  6 13  1  0
 13 14  1  0
 14 15  1  0
 15 16  1  0
 15 17  2  0
 12 18  1  0
 18 19  1  0
 19 20  1  0
 20 21  1  0
 21 22  2  3
 22 23  1  0
 23 24  2  3
 24 25  1  0
 25 26  2  0
  7  8  2  0
  8  9  1  0
  9 10  2  0
 10 12  1  0
 12 11  2  0
 11  7  1  0
  1  2  2  0
  2  3  1  0
  3  4  2  0
  4  5  1  0
  5  6  2  0
  6  1  1  0
M  END

$$$$
