No_3851-gen_results/8p0m/2024-11-27-11-27-31/
     RDKit          3D

 20 22  0  0  0  0  0  0  0  0999 V2000
  -28.0162   -0.8135   28.8779 C   0  0  0  0  0  0  0  0  0  0  0  0
  -27.0636   -0.1190   28.6079 C   0  0  0  0  0  0  0  0  0  0  0  0
  -25.7647   -0.3897   29.0360 C   0  0  0  0  0  0  0  0  0  0  0  0
  -25.5296   -1.5302   29.9014 C   0  0  0  0  0  0  0  0  0  0  0  0
  -26.6888   -2.2893   30.1810 C   0  0  0  0  0  0  0  0  0  0  0  0
  -27.8727   -1.9508   29.7373 C   0  0  0  0  0  0  0  0  0  0  0  0
  -29.0153   -2.5742   30.0979 O   0  0  0  0  0  0  0  0  0  0  0  0
  -24.5281    0.4003   28.7256 C   0  0  0  0  0  0  0  0  0  0  0  0
  -23.3412    0.1065   29.1740 C   0  0  0  0  0  0  0  0  0  0  0  0
  -22.2269    0.9199   28.8689 C   0  0  0  0  0  0  0  0  0  0  0  0
  -24.4605    1.1774   27.5099 C   0  0  0  0  0  0  0  0  0  0  0  0
  -23.4555    2.0130   27.1325 C   0  0  0  0  0  0  0  0  0  0  0  0
  -22.2361    1.8305   27.8141 C   0  0  0  0  0  0  0  0  0  0  0  0
  -29.2931   -2.8172   31.4440 C   0  0  0  0  0  0  0  0  0  0  0  0
  -29.7407   -4.1523   31.6570 C   0  0  0  0  0  0  0  0  0  0  0  0
  -29.6875   -5.0439   30.7131 C   0  0  0  0  0  0  0  0  0  0  0  0
  -30.3295   -6.3585   30.8489 C   0  0  0  0  0  0  0  0  0  0  0  0
  -30.8696   -6.6828   32.1284 C   0  0  0  0  0  0  0  0  0  0  0  0
  -30.8974   -5.7730   33.1519 C   0  0  0  0  0  0  0  0  0  0  0  0
  -30.3776   -4.4801   32.9560 C   0  0  0  0  0  0  0  0  0  0  0  0
  6  7  1  0
  3  8  1  0
  7 14  1  0
 14 15  1  0
 15 16  2  0
 16 17  1  0
 17 18  2  0
 18 19  1  0
 19 20  2  0
 20 15  1  0
  1  2  2  0
  2  3  1  0
  3  4  2  0
  4  5  1  0
  5  6  2  0
  6  1  1  0
  8  9  2  0
  9 10  1  0
 10 13  2  0
 13 12  1  0
 12 11  2  0
 11  8  1  0
M  END

$$$$
