No_3254-gen_results/8p0m/2024-11-27-11-27-31/
     RDKit          3D

 13 14  0  0  0  0  0  0  0  0999 V2000
  -28.0162   -0.8135   28.8779 C   0  0  0  0  0  0  0  0  0  0  0  0
  -28.4690   -0.7850   29.8287 C   0  0  0  0  0  0  0  0  0  0  0  0
  -27.1356    0.2359   28.5352 C   0  0  0  0  0  0  0  0  0  0  0  0
  -26.8745    1.2825   29.3982 C   0  0  0  0  0  0  0  0  0  0  0  0
  -27.5070    1.2380   30.6295 C   0  0  0  0  0  0  0  0  0  0  0  0
  -28.3293    0.1745   30.9350 C   0  0  0  0  0  0  0  0  0  0  0  0
  -26.4077    0.3070   27.2259 C   0  0  0  0  0  0  0  0  0  0  0  0
  -25.7128    1.4905   26.9212 C   0  0  0  0  0  0  0  0  0  0  0  0
  -24.7086    1.5122   26.0854 C   0  0  0  0  0  0  0  0  0  0  0  0
  -23.8826    2.7495   26.0120 C   0  0  0  0  0  0  0  0  0  0  0  0
  -24.2649    3.8841   26.8164 C   0  0  0  0  0  0  0  0  0  0  0  0
  -25.3624    3.8109   27.5931 C   0  0  0  0  0  0  0  0  0  0  0  0
  -26.0427    2.6081   27.7736 C   0  0  0  0  0  0  0  0  0  0  0  0
  3  7  1  0
  7  8  1  0
  1  2  2  0
  2  6  1  0
  6  5  2  0
  5  4  1  0
  4  3  2  0
  3  1  1  0
  8  9  2  0
  9 10  1  0
 10 11  2  0
 11 12  1  0
 12 13  2  0
 13  8  1  0
M  END

$$$$
