No_3582-gen_results/8p0m/2024-11-27-11-27-31/
     RDKit          3D

 29 32  0  0  0  0  0  0  0  0999 V2000
  -28.0162   -0.8135   28.8779 C   0  0  0  0  0  0  0  0  0  0  0  0
  -27.0636   -0.1189   28.6079 C   0  0  0  0  0  0  0  0  0  0  0  0
  -25.7647   -0.3897   29.0360 C   0  0  0  0  0  0  0  0  0  0  0  0
  -25.5296   -1.5302   29.9014 C   0  0  0  0  0  0  0  0  0  0  0  0
  -26.6888   -2.2893   30.1810 C   0  0  0  0  0  0  0  0  0  0  0  0
  -27.8727   -1.9508   29.7373 C   0  0  0  0  0  0  0  0  0  0  0  0
  -24.5491    0.4100   28.7341 C   0  0  0  0  0  0  0  0  0  0  0  0
  -24.0931    1.3779   29.5761 C   0  0  0  0  0  0  0  0  0  0  0  0
  -22.9779    2.1400   29.2464 C   0  0  0  0  0  0  0  0  0  0  0  0
  -22.2677    1.9029   28.0361 C   0  0  0  0  0  0  0  0  0  0  0  0
  -22.7430    0.9704   27.1898 C   0  0  0  0  0  0  0  0  0  0  0  0
  -23.8526    0.2276   27.4988 C   0  0  0  0  0  0  0  0  0  0  0  0
  -24.7481    1.6171   30.9103 C   0  0  0  0  0  0  0  0  0  0  0  0
  -24.8646    0.8279   31.8444 N   0  0  0  0  0  0  0  0  0  0  0  0
  -25.3355    2.9535   31.0534 C   0  0  0  0  0  0  0  0  0  0  0  0
  -25.5059    3.9216   30.1136 C   0  0  0  0  0  0  0  0  0  0  0  0
  -25.9412    5.1746   30.4148 C   0  0  0  0  0  0  0  0  0  0  0  0
  -26.1338    6.1831   29.4063 C   0  0  0  0  0  0  0  0  0  0  0  0
  -25.8564    5.7672   28.0720 C   0  0  0  0  0  0  0  0  0  0  0  0
  -25.4084    4.5148   27.7704 C   0  0  0  0  0  0  0  0  0  0  0  0
  -25.2662    3.6278   28.7666 C   0  0  0  0  0  0  0  0  0  0  0  0
  -25.5958    0.5853   32.8890 C   0  0  0  0  0  0  0  0  0  0  0  0
  -26.7721    1.3701   33.0466 C   0  0  0  0  0  0  0  0  0  0  0  0
  -25.4059   -0.4842   33.7964 C   0  0  0  0  0  0  0  0  0  0  0  0
  -27.6738    1.1532   33.5102 C   0  0  0  0  0  0  0  0  0  0  0  0
  -26.4618   -0.7358   34.7055 C   0  0  0  0  0  0  0  0  0  0  0  0
  -27.6138    0.0355   34.6376 C   0  0  0  0  0  0  0  0  0  0  0  0
  -28.9427   -2.6696   30.0758 F   0  0  0  0  0  0  0  0  0  0  0  0
  -25.9777    3.1933   32.2337 F   0  0  0  0  0  0  0  0  0  0  0  0
  3  7  1  0
  8 13  1  0
 13 14  2  3
 13 15  1  0
 15 16  1  0
 14 22  1  0
  6 28  1  0
 15 29  1  0
  1  2  2  0
  2  3  1  0
  3  4  2  0
  4  5  1  0
  5  6  2  0
  6  1  1  0
 22 23  2  0
 23 25  1  0
 25 27  2  0
 27 26  1  0
 26 24  2  0
 24 22  1  0
  7  8  1  0
  8  9  2  0
  9 10  1  0
 10 11  2  0
 11 12  1  0
 12  7  2  0
 16 17  2  0
 17 18  1  0
 18 19  2  0
 19 20  1  0
 20 21  2  0
 21 16  1  0
M  END

$$$$
