No_3793-gen_results/8p0m/2024-11-27-11-27-31/
     RDKit          3D

 22 23  0  0  0  0  0  0  0  0999 V2000
  -28.0162   -0.8135   28.8779 C   0  0  0  0  0  0  0  0  0  0  0  0
  -28.4690   -0.7850   29.8287 C   0  0  0  0  0  0  0  0  0  0  0  0
  -27.1356    0.2359   28.5352 C   0  0  0  0  0  0  0  0  0  0  0  0
  -26.3351    0.2900   27.2835 C   0  0  0  0  0  0  0  0  0  0  0  0
  -28.3692    0.1957   30.9236 C   0  0  0  0  0  0  0  0  0  0  0  0
  -27.5158    1.2655   30.6540 C   0  0  0  0  0  0  0  0  0  0  0  0
  -26.8411    1.2942   29.4761 C   0  0  0  0  0  0  0  0  0  0  0  0
  -25.3613    0.7751   26.9673 C   0  0  0  0  0  0  0  0  0  0  0  0
  -24.6558    0.7452   25.7260 C   0  0  0  0  0  0  0  0  0  0  0  0
  -25.3749    0.0010   24.6998 C   0  0  0  0  0  0  0  0  0  0  0  0
  -26.5372   -0.5015   25.0059 C   0  0  0  0  0  0  0  0  0  0  0  0
  -27.0691   -0.4261   26.2029 C   0  0  0  0  0  0  0  0  0  0  0  0
  -25.9377    2.3823   29.1736 C   0  0  0  0  0  0  0  0  0  0  0  0
  -24.7229    2.5387   29.6609 C   0  0  0  0  0  0  0  0  0  0  0  0
  -26.5031    3.4688   28.3439 C   0  0  0  0  0  0  0  0  0  0  0  0
  -23.3207    1.9606   28.8882 P   0  0  0  0  0  0  0  0  0  0  0  0
  -22.3958    1.5312   30.0308 O   0  0  0  0  0  0  0  0  0  0  0  0
  -22.7159    3.2973   28.3451 O   0  0  0  0  0  0  0  0  0  0  0  0
  -23.4808    0.9165   28.0001 O   0  0  0  0  0  0  0  0  0  0  0  0
  -24.9211    1.8192   27.6646 O   0  0  0  0  0  0  0  0  0  0  0  0
  -24.6536    2.9664   26.8760 C   0  0  0  0  0  0  0  0  0  0  0  0
  -23.8069   -0.6740   28.6142 Br  0  0  0  0  0  0  0  0  0  0  0  0
  3  4  1  0
  7 13  1  0
 13 14  1  0
 13 15  1  0
 14 16  1  0
 16 17  1  0
 16 18  2  0
 16 19  1  0
  8 20  1  0
 20 21  1  0
 19 22  1  0
  4  8  2  0
  8  9  1  0
  9 10  2  0
 10 11  1  0
 11 12  2  0
 12  4  1  0
  1  2  2  0
  2  5  1  0
  5  6  2  0
  6  7  1  0
  7  3  2  0
  3  1  1  0
M  END

$$$$
