No_351-gen_results/8p0m/2024-11-27-11-27-31/
     RDKit          3D

 18 19  0  0  0  0  0  0  0  0999 V2000
  -28.0162   -0.8135   28.8779 C   0  0  0  0  0  0  0  0  0  0  0  0
  -27.0636   -0.1189   28.6079 C   0  0  0  0  0  0  0  0  0  0  0  0
  -25.7923   -0.4302   29.0761 C   0  0  0  0  0  0  0  0  0  0  0  0
  -24.5456    0.3494   28.8225 C   0  0  0  0  0  0  0  0  0  0  0  0
  -24.6586    1.4196   27.8878 C   0  0  0  0  0  0  0  0  0  0  0  0
  -25.9471    1.6811   27.3792 C   0  0  0  0  0  0  0  0  0  0  0  0
  -27.0439    0.9739   27.6871 C   0  0  0  0  0  0  0  0  0  0  0  0
  -29.1797   -0.1202   29.1288 N   0  0  0  0  0  0  0  0  0  0  0  0
  -29.5842    0.1318   30.4036 C   0  0  0  0  0  0  0  0  0  0  0  0
  -30.0536    0.0965   28.0536 C   0  0  0  0  0  0  0  0  0  0  0  0
  -23.4618    2.1735   27.6266 C   0  0  0  0  0  0  0  0  0  0  0  0
  -23.4788    3.1475   26.9110 O   0  0  0  0  0  0  0  0  0  0  0  0
  -22.2656    1.7112   27.9893 O   0  0  0  0  0  0  0  0  0  0  0  0
  -31.3887   -0.1987   28.2872 C   0  0  0  0  0  0  0  0  0  0  0  0
  -32.2319    0.3362   27.4959 C   0  0  0  0  0  0  0  0  0  0  0  0
  -31.8430    0.5286   26.2268 C   0  0  0  0  0  0  0  0  0  0  0  0
  -30.4942    0.7953   25.8753 C   0  0  0  0  0  0  0  0  0  0  0  0
  -29.6318    0.6218   26.8283 C   0  0  0  0  0  0  0  0  0  0  0  0
  1  2  1  0
  1  8  1  0
  8  9  1  0
  8 10  1  0
  5 11  1  0
 11 12  2  0
 11 13  1  0
  2  3  2  0
  3  4  1  0
  4  5  2  0
  5  6  1  0
  6  7  2  0
  7  2  1  0
 10 14  2  0
 14 15  1  0
 15 16  2  0
 16 17  1  0
 17 18  2  0
 18 10  1  0
M  END

$$$$
