No_3874-gen_results/8p0m/2024-11-27-11-27-31/
     RDKit          3D

 35 38  0  0  0  0  0  0  0  0999 V2000
  -28.0162   -0.8135   28.8779 C   0  0  0  0  0  0  0  0  0  0  0  0
  -27.0636   -0.1189   28.6079 C   0  0  0  0  0  0  0  0  0  0  0  0
  -25.7923   -0.4302   29.0761 C   0  0  0  0  0  0  0  0  0  0  0  0
  -25.5756   -1.5654   29.9363 C   0  0  0  0  0  0  0  0  0  0  0  0
  -26.7354   -2.3004   30.2173 C   0  0  0  0  0  0  0  0  0  0  0  0
  -27.9184   -1.9537   29.7629 C   0  0  0  0  0  0  0  0  0  0  0  0
  -27.1057    1.1023   27.7593 C   0  0  0  0  0  0  0  0  0  0  0  0
  -26.2345    1.4562   27.0152 N   0  0  0  0  0  0  0  0  0  0  0  0
  -28.0034    1.9622   28.0076 O   0  0  0  0  0  0  0  0  0  0  0  0
  -24.9654    0.7741   26.7927 C   0  0  0  0  0  0  0  0  0  0  0  0
  -23.7949    1.6731   27.1901 C   0  0  0  0  0  0  0  0  0  0  0  0
  -22.5919    1.1317   27.6636 C   0  0  0  0  0  0  0  0  0  0  0  0
  -21.4292    1.8748   27.7683 C   0  0  0  0  0  0  0  0  0  0  0  0
  -23.8722    3.0829   26.9346 C   0  0  0  0  0  0  0  0  0  0  0  0
  -25.1252    3.5956   26.4224 C   0  0  0  0  0  0  0  0  0  0  0  0
  -25.9740    2.9965   27.2624 C   0  0  0  0  0  0  0  0  0  0  0  0
  -22.6439   -0.1595   28.3729 C   0  0  0  0  0  0  0  0  0  0  0  0
  -21.4822   -0.6167   29.0441 C   0  0  0  0  0  0  0  0  0  0  0  0
  -20.2689    1.3302   28.3854 C   0  0  0  0  0  0  0  0  0  0  0  0
  -20.3353    0.1385   29.0489 C   0  0  0  0  0  0  0  0  0  0  0  0
  -29.0752   -2.7943   30.1305 C   0  0  0  0  0  0  0  0  0  0  0  0
  -28.9992   -4.0141   30.3147 O   0  0  0  0  0  0  0  0  0  0  0  0
  -30.2308   -2.2248   30.2992 O   0  0  0  0  0  0  0  0  0  0  0  0
  -31.0968   -2.5968   31.1141 C   0  0  0  0  0  0  0  0  0  0  0  0
  -31.0108   -2.2847   32.4154 C   0  0  0  0  0  0  0  0  0  0  0  0
  -30.5879   -0.9630   32.6126 C   0  0  0  0  0  0  0  0  0  0  0  0
  -31.3097    0.0934   32.2461 C   0  0  0  0  0  0  0  0  0  0  0  0
  -32.4395    0.3009   32.5832 C   0  0  0  0  0  0  0  0  0  0  0  0
  -33.2302    1.4749   32.1269 C   0  0  0  0  0  0  0  0  0  0  0  0
  -32.5699    2.3464   31.2268 C   0  0  0  0  0  0  0  0  0  0  0  0
  -31.2667    2.1036   30.7878 C   0  0  0  0  0  0  0  0  0  0  0  0
  -30.5863    1.0525   31.2917 C   0  0  0  0  0  0  0  0  0  0  0  0
  -29.3514   -0.7639   33.4684 C   0  0  0  0  0  0  0  0  0  0  0  0
  -29.4413   -0.2312   34.7080 C   0  0  0  0  0  0  0  0  0  0  0  0
  -28.3300    0.0224   35.4365 C   0  0  0  0  0  0  0  0  0  0  0  0
  2  7  1  0
  7  8  1  0
  7  9  2  0
  8 10  1  0
 10 11  1  0
 11 14  1  0
 14 15  1  0
  8 16  1  0
 15 16  1  0
  6 21  1  0
 21 22  2  0
 21 23  1  0
 23 24  1  0
 24 25  1  0
 25 26  1  0
 26 27  1  0
 26 33  1  0
 33 34  1  0
 34 35  2  0
 11 12  1  0
  1  2  2  0
  2  3  1  0
  3  4  2  0
  4  5  1  0
  5  6  2  0
  6  1  1  0
 27 28  2  0
 28 29  1  0
 29 30  2  0
 30 31  1  0
 31 32  2  0
 32 27  1  0
 12 13  2  0
 13 19  1  0
 19 20  2  0
 20 18  1  0
 18 17  2  0
 17 12  1  0
M  END

$$$$
