No_3042-gen_results/8p0m/2024-11-27-11-27-31/
     RDKit          3D

 14 14  0  0  0  0  0  0  0  0999 V2000
  -28.0162   -0.8135   28.8779 C   0  0  0  0  0  0  0  0  0  0  0  0
  -28.4690   -0.7850   29.8287 C   0  0  0  0  0  0  0  0  0  0  0  0
  -28.1960    0.3478   28.0550 C   0  0  0  0  0  0  0  0  0  0  0  0
  -27.4421    0.5100   26.7946 C   0  0  0  0  0  0  0  0  0  0  0  0
  -26.1689   -0.0794   26.6787 C   0  0  0  0  0  0  0  0  0  0  0  0
  -25.7312   -0.9607   27.6875 C   0  0  0  0  0  0  0  0  0  0  0  0
  -26.5043   -1.2222   28.7582 C   0  0  0  0  0  0  0  0  0  0  0  0
  -28.4210   -2.0451   30.7337 C   0  0  0  0  0  0  0  0  0  0  0  0
  -28.6416   -3.0482   30.3342 C   0  0  0  0  0  0  0  0  0  0  0  0
  -28.9366   -4.0250   30.8582 C   0  0  0  0  0  0  0  0  0  0  0  0
  -30.2027   -4.4038   31.0298 C   0  0  0  0  0  0  0  0  0  0  0  0
  -30.6273   -5.7109   31.5553 C   0  0  0  0  0  0  0  0  0  0  0  0
  -29.6233   -6.5534   31.9224 C   0  0  0  0  0  0  0  0  0  0  0  0
  -28.3159   -6.2329   31.7297 C   0  0  0  0  0  0  0  0  0  0  0  0
  1  2  2  3
  1  3  1  0
  3  4  1  0
  4  5  1  0
  5  6  1  0
  1  7  1  0
  6  7  1  0
  2  8  1  0
  8  9  2  3
  9 10  1  0
 10 11  2  3
 11 12  1  0
 12 13  2  3
 13 14  1  0
M  END

$$$$
