No_3624-gen_results/8p0m/2024-11-27-11-27-31/
     RDKit          3D

 16 17  0  0  0  0  0  0  0  0999 V2000
  -28.0162   -0.8135   28.8779 C   0  0  0  0  0  0  0  0  0  0  0  0
  -27.0636   -0.1189   28.6079 C   0  0  0  0  0  0  0  0  0  0  0  0
  -26.9716    0.7139   27.5060 C   0  0  0  0  0  0  0  0  0  0  0  0
  -28.1053    0.7744   26.6421 C   0  0  0  0  0  0  0  0  0  0  0  0
  -29.2008    0.1044   27.0527 C   0  0  0  0  0  0  0  0  0  0  0  0
  -29.2096   -0.6029   28.1853 C   0  0  0  0  0  0  0  0  0  0  0  0
  -30.5651    0.2430   26.0493 Cl  0  0  0  0  0  0  0  0  0  0  0  0
  -25.6106   -0.1345   29.2364 C   0  0  0  0  0  0  0  0  0  0  0  0
  -24.6433    0.4374   28.8232 N   0  0  0  0  0  0  0  0  0  0  0  0
  -24.6666    1.2464   27.6913 C   0  0  0  0  0  0  0  0  0  0  0  0
  -25.7751    1.3491   26.9872 C   0  0  0  0  0  0  0  0  0  0  0  0
  -23.3771    1.9265   27.3591 C   0  0  0  0  0  0  0  0  0  0  0  0
  -23.0079    2.5345   25.9330 Cl  0  0  0  0  0  0  0  0  0  0  0  0
  -22.3069    2.0167   28.3796 C   0  0  0  0  0  0  0  0  0  0  0  0
  -25.5132   -0.8823   30.3080 F   0  0  0  0  0  0  0  0  0  0  0  0
  -21.1344    2.1481   27.8970 O   0  0  0  0  0  0  0  0  0  0  0  0
  5  7  1  0
 10 12  1  0
 12 13  1  0
 12 14  1  0
  8 15  1  0
 14 16  2  0
  1  2  2  0
  3  4  2  0
  4  5  1  0
  5  6  2  0
  6  1  1  0
  2  3  1  0
  3 11  1  0
 11 10  2  0
 10  9  1  0
  9  8  2  0
  8  2  1  0
M  END

$$$$
