No_3414-gen_results/8p0m/2024-11-27-11-27-31/
     RDKit          3D

 18 18  0  0  0  0  0  0  0  0999 V2000
  -28.0162   -0.8135   28.8779 C   0  0  0  0  0  0  0  0  0  0  0  0
  -27.0636   -0.1189   28.6079 C   0  0  0  0  0  0  0  0  0  0  0  0
  -25.7923   -0.4302   29.0761 C   0  0  0  0  0  0  0  0  0  0  0  0
  -24.5456    0.3494   28.8225 C   0  0  0  0  0  0  0  0  0  0  0  0
  -24.6586    1.4196   27.8878 C   0  0  0  0  0  0  0  0  0  0  0  0
  -25.9471    1.6811   27.3792 C   0  0  0  0  0  0  0  0  0  0  0  0
  -27.0439    0.9739   27.6871 C   0  0  0  0  0  0  0  0  0  0  0  0
  -27.9517   -1.7518   29.9375 N   0  0  0  0  0  0  0  0  0  0  0  0
  -29.1984   -0.5344   28.5255 O   0  0  0  0  0  0  0  0  0  0  0  0
  -29.0453   -2.5720   30.4456 C   0  0  0  0  0  0  0  0  0  0  0  0
  -23.4612    2.1665   27.5992 C   0  0  0  0  0  0  0  0  0  0  0  0
  -22.2719    1.7475   28.0628 N   0  0  0  0  0  0  0  0  0  0  0  0
  -23.5293    3.0951   26.6221 N   0  0  0  0  0  0  0  0  0  0  0  0
  -28.8036   -3.9574   30.3801 C   0  0  0  0  0  0  0  0  0  0  0  0
  -29.9840   -4.7778   30.1370 C   0  0  0  0  0  0  0  0  0  0  0  0
  -31.0176   -4.0923   29.6371 C   0  0  0  0  0  0  0  0  0  0  0  0
  -31.2536   -2.7907   29.6952 C   0  0  0  0  0  0  0  0  0  0  0  0
  -29.9359   -1.8877   31.4819 Cl  0  0  0  0  0  0  0  0  0  0  0  0
  1  2  1  0
  1  8  1  0
  1  9  2  0
  8 10  1  0
  5 11  1  0
 11 12  2  0
 11 13  1  0
 10 14  1  0
 14 15  1  0
 15 16  2  3
 16 17  1  0
 10 18  1  0
  2  3  2  0
  3  4  1  0
  4  5  2  0
  5  6  1  0
  6  7  2  0
  7  2  1  0
M  END

$$$$
