No_3183-gen_results/8p0m/2024-11-27-11-27-31/
     RDKit          3D

 35 37  0  0  0  0  0  0  0  0999 V2000
  -28.0162   -0.8135   28.8779 C   0  0  0  0  0  0  0  0  0  0  0  0
  -28.4690   -0.7850   29.8287 C   0  0  0  0  0  0  0  0  0  0  0  0
  -28.1960    0.3478   28.0550 C   0  0  0  0  0  0  0  0  0  0  0  0
  -29.0191    1.3501   28.3782 C   0  0  0  0  0  0  0  0  0  0  0  0
  -29.4107    0.1803   30.3782 C   0  0  0  0  0  0  0  0  0  0  0  0
  -29.6059    1.2495   29.6193 C   0  0  0  0  0  0  0  0  0  0  0  0
  -27.4597    0.3802   26.7091 C   0  0  0  0  0  0  0  0  0  0  0  0
  -26.4659    1.4084   26.5648 C   0  0  0  0  0  0  0  0  0  0  0  0
  -25.2424    1.0667   26.0698 C   0  0  0  0  0  0  0  0  0  0  0  0
  -24.1853    2.0319   25.9760 C   0  0  0  0  0  0  0  0  0  0  0  0
  -24.4551    3.3069   26.5383 C   0  0  0  0  0  0  0  0  0  0  0  0
  -25.6810    3.6454   27.0609 C   0  0  0  0  0  0  0  0  0  0  0  0
  -26.6889    2.6519   27.1408 C   0  0  0  0  0  0  0  0  0  0  0  0
  -25.8689    5.0096   27.6036 C   0  0  0  0  0  0  0  0  0  0  0  0
  -25.3602    5.7875   28.0745 N   0  0  0  0  0  0  0  0  0  0  0  0
  -25.6858    6.9934   28.5651 C   0  0  0  0  0  0  0  0  0  0  0  0
  -27.1709    5.4372   27.2351 O   0  0  0  0  0  0  0  0  0  0  0  0
  -25.0982    8.1396   27.9923 C   0  0  0  0  0  0  0  0  0  0  0  0
  -25.3213    9.4337   28.5646 C   0  0  0  0  0  0  0  0  0  0  0  0
  -26.1769    9.5465   29.6625 C   0  0  0  0  0  0  0  0  0  0  0  0
  -26.7266    8.4290   30.2009 C   0  0  0  0  0  0  0  0  0  0  0  0
  -26.4291    7.1658   29.7090 C   0  0  0  0  0  0  0  0  0  0  0  0
  -28.2907   -2.2418   30.9539 Cl  0  0  0  0  0  0  0  0  0  0  0  0
  -30.5450    2.3547   30.0867 C   0  0  0  0  0  0  0  0  0  0  0  0
  -31.2332    2.9839   29.4678 O   0  0  0  0  0  0  0  0  0  0  0  0
  -30.6386    2.3370   31.5074 O   0  0  0  0  0  0  0  0  0  0  0  0
  -27.5753    8.5418   31.4396 C   0  0  0  0  0  0  0  0  0  0  0  0
  -27.8294    9.3121   32.1023 O   0  0  0  0  0  0  0  0  0  0  0  0
  -28.1556    7.2602   31.6524 O   0  0  0  0  0  0  0  0  0  0  0  0
  -31.3490    3.3589   32.0863 C   0  0  0  0  0  0  0  0  0  0  0  0
  -30.6671    4.4350   32.3960 C   0  0  0  0  0  0  0  0  0  0  0  0
  -30.7953    5.0747   33.6053 C   0  0  0  0  0  0  0  0  0  0  0  0
  -31.2093    4.3738   34.6557 C   0  0  0  0  0  0  0  0  0  0  0  0
  -31.3268    4.9643   35.9022 C   0  0  0  0  0  0  0  0  0  0  0  0
  -30.9658    6.3127   36.0376 C   0  0  0  0  0  0  0  0  0  0  0  0
  3  7  1  0
  7  8  1  0
 12 14  1  0
 14 15  1  0
 14 17  2  0
  2 23  1  0
  6 24  1  0
 24 25  2  0
 24 26  1  0
 21 27  1  0
 27 28  2  0
 27 29  1  0
 26 30  1  0
 30 31  1  0
 31 32  2  3
 32 33  1  0
 33 34  1  0
 34 35  2  0
 15 16  1  0
 16 18  2  0
 18 19  1  0
 19 20  2  0
 20 21  1  0
 21 22  2  0
 22 16  1  0
  8  9  2  0
  9 10  1  0
 10 11  2  0
 11 12  1  0
 12 13  2  0
 13  8  1  0
  1  2  2  0
  2  5  1  0
  5  6  2  0
  6  4  1  0
  4  3  2  0
  3  1  1  0
M  END

$$$$
