No_3886-gen_results/8p0m/2024-11-27-11-27-31/
     RDKit          3D

 24 26  0  0  0  0  0  0  0  0999 V2000
  -28.0162   -0.8135   28.8779 C   0  0  0  0  0  0  0  0  0  0  0  0
  -27.0636   -0.1189   28.6079 C   0  0  0  0  0  0  0  0  0  0  0  0
  -26.9716    0.7139   27.5060 C   0  0  0  0  0  0  0  0  0  0  0  0
  -28.1053    0.7744   26.6421 C   0  0  0  0  0  0  0  0  0  0  0  0
  -29.2008    0.1044   27.0527 C   0  0  0  0  0  0  0  0  0  0  0  0
  -29.2096   -0.6029   28.1853 C   0  0  0  0  0  0  0  0  0  0  0  0
  -30.3702    0.2264   26.1604 C   0  0  0  0  0  0  0  0  0  0  0  0
  -30.3387    0.2161   24.9661 O   0  0  0  0  0  0  0  0  0  0  0  0
  -31.5967   -0.2850   26.7546 N   0  0  0  0  0  0  0  0  0  0  0  0
  -31.8074   -0.4184   28.1132 C   0  0  0  0  0  0  0  0  0  0  0  0
  -30.6038   -0.9385   28.7959 C   0  0  0  0  0  0  0  0  0  0  0  0
  -30.6378   -1.4982   29.9626 O   0  0  0  0  0  0  0  0  0  0  0  0
  -32.8568   -0.2404   25.9254 C   0  0  0  0  0  0  0  0  0  0  0  0
  -25.6460    1.3114   27.0517 C   0  0  0  0  0  0  0  0  0  0  0  0
  -24.5556    1.0593   27.7446 C   0  0  0  0  0  0  0  0  0  0  0  0
  -23.2911    1.7599   27.3703 C   0  0  0  0  0  0  0  0  0  0  0  0
  -23.3024    2.4480   26.1471 C   0  0  0  0  0  0  0  0  0  0  0  0
  -24.4781    2.6857   25.4966 C   0  0  0  0  0  0  0  0  0  0  0  0
  -25.6439    2.1026   25.8921 C   0  0  0  0  0  0  0  0  0  0  0  0
  -22.1152    1.5126   28.0228 N   0  0  0  0  0  0  0  0  0  0  0  0
  -21.0960    0.9166   27.5410 C   0  0  0  0  0  0  0  0  0  0  0  0
  -20.6530   -0.1307   28.5540 C   0  0  0  0  0  0  0  0  0  0  0  0
  -20.9834    0.0916   29.6808 F   0  0  0  0  0  0  0  0  0  0  0  0
  -19.9988   -1.0570   28.1037 F   0  0  0  0  0  0  0  0  0  0  0  0
  5  7  1  0
  7  8  2  0
  7  9  1  0
  9 10  1  0
  6 11  1  0
 10 11  1  0
 11 12  2  0
  9 13  1  0
  3 14  1  0
 16 20  1  0
 20 21  1  0
 21 22  1  0
 22 23  1  0
 22 24  1  0
  1  2  2  0
  2  3  1  0
  3  4  2  0
  4  5  1  0
  5  6  2  0
  6  1  1  0
 14 15  2  0
 15 16  1  0
 16 17  2  0
 17 18  1  0
 18 19  2  0
 19 14  1  0
M  END

$$$$
