No_3844-gen_results/8p0m/2024-11-27-11-27-31/
     RDKit          3D

  5  4  0  0  0  0  0  0  0  0999 V2000
  -28.0727   -1.2542   28.5316 F   0  0  0  0  0  0  0  0  0  0  0  0
  -28.2662   -0.4214   29.1931 C   0  0  0  0  0  0  0  0  0  0  0  0
  -27.4413   -0.2944   30.1102 F   0  0  0  0  0  0  0  0  0  0  0  0
  -29.5063   -0.6575   29.7174 F   0  0  0  0  0  0  0  0  0  0  0  0
  -28.1231    0.7942   28.8337 F   0  0  0  0  0  0  0  0  0  0  0  0
  1  2  1  0
  2  3  1  0
  2  4  1  0
  2  5  1  0
M  END

$$$$
