No_398-gen_results/8p0m/2024-11-27-11-27-31/
     RDKit          3D

 22 23  0  0  0  0  0  0  0  0999 V2000
  -28.0162   -0.8135   28.8779 C   0  0  0  0  0  0  0  0  0  0  0  0
  -28.4690   -0.7850   29.8287 C   0  0  0  0  0  0  0  0  0  0  0  0
  -27.1356    0.2359   28.5352 C   0  0  0  0  0  0  0  0  0  0  0  0
  -26.8745    1.2825   29.3982 C   0  0  0  0  0  0  0  0  0  0  0  0
  -28.3613    0.1987   30.9244 C   0  0  0  0  0  0  0  0  0  0  0  0
  -27.5277    1.2234   30.6356 C   0  0  0  0  0  0  0  0  0  0  0  0
  -26.3879    0.2914   27.2334 C   0  0  0  0  0  0  0  0  0  0  0  0
  -25.1510    0.3034   27.2565 C   0  0  0  0  0  0  0  0  0  0  0  0
  -24.3395    0.2047   28.4288 C   0  0  0  0  0  0  0  0  0  0  0  0
  -23.0044    0.7595   28.4099 C   0  0  0  0  0  0  0  0  0  0  0  0
  -22.0532    0.4589   29.3978 C   0  0  0  0  0  0  0  0  0  0  0  0
  -22.4746   -0.3373   30.4708 C   0  0  0  0  0  0  0  0  0  0  0  0
  -24.4198   -0.6960   29.5306 C   0  0  0  0  0  0  0  0  0  0  0  0
  -23.5614   -1.0014   30.4354 C   0  0  0  0  0  0  0  0  0  0  0  0
  -27.1875    0.3636   26.0646 C   0  0  0  0  0  0  0  0  0  0  0  0
  -26.5397    0.0886   25.0049 F   0  0  0  0  0  0  0  0  0  0  0  0
  -28.2595   -0.4289   26.0676 F   0  0  0  0  0  0  0  0  0  0  0  0
  -27.5939    1.6465   25.8601 F   0  0  0  0  0  0  0  0  0  0  0  0
  -27.2712    2.3366   31.6294 C   0  0  0  0  0  0  0  0  0  0  0  0
  -27.6375    3.5052   31.5535 N   0  0  0  0  0  0  0  0  0  0  0  0
  -28.4525    4.0124   30.9255 C   0  0  0  0  0  0  0  0  0  0  0  0
  -28.7067    5.4441   30.8704 C   0  0  0  0  0  0  0  0  0  0  0  0
  3  7  1  0
  7  8  2  3
  8  9  1  0
  7 15  1  0
 15 16  1  0
 15 17  1  0
 15 18  1  0
  6 19  1  0
 19 20  1  0
 20 21  1  0
 21 22  2  0
  1  2  2  0
  2  5  1  0
  5  6  2  0
  6  4  1  0
  4  3  2  0
  3  1  1  0
  9 10  2  0
 10 11  1  0
 11 12  2  0
 12 14  1  0
 14 13  2  0
 13  9  1  0
M  END

$$$$
