No_3144-gen_results/8p0m/2024-11-27-11-27-31/
     RDKit          3D

 11 11  0  0  0  0  0  0  0  0999 V2000
  -28.0162   -0.8135   28.8779 C   0  0  0  0  0  0  0  0  0  0  0  0
  -28.4690   -0.7850   29.8287 C   0  0  0  0  0  0  0  0  0  0  0  0
  -28.1960    0.3478   28.0550 C   0  0  0  0  0  0  0  0  0  0  0  0
  -27.4421    0.5100   26.7946 C   0  0  0  0  0  0  0  0  0  0  0  0
  -26.1689   -0.0794   26.6787 C   0  0  0  0  0  0  0  0  0  0  0  0
  -25.3298    0.2528   25.6068 C   0  0  0  0  0  0  0  0  0  0  0  0
  -28.1897   -1.8855   30.8891 C   0  0  0  0  0  0  0  0  0  0  0  0
  -27.3579   -2.8974   30.4486 C   0  0  0  0  0  0  0  0  0  0  0  0
  -26.5017   -2.6982   29.4143 C   0  0  0  0  0  0  0  0  0  0  0  0
  -26.7097   -1.5405   28.6115 C   0  0  0  0  0  0  0  0  0  0  0  0
  -25.7662   -1.1457   27.6748 C   0  0  0  0  0  0  0  0  0  0  0  0
  1  3  1  0
  3  4  1  0
  4  5  1  0
  5  6  1  0
  5 11  1  0
  1  2  2  0
  2  7  1  0
  7  8  2  0
  8  9  1  0
  9 10  2  0
 10  1  1  0
M  END

$$$$
