No_3652-gen_results/8p0m/2024-11-27-11-27-31/
     RDKit          3D

 16 17  0  0  0  0  0  0  0  0999 V2000
  -28.0162   -0.8135   28.8779 C   0  0  0  0  0  0  0  0  0  0  0  0
  -28.4690   -0.7850   29.8287 C   0  0  0  0  0  0  0  0  0  0  0  0
  -26.5455   -0.8762   28.8500 C   0  0  0  0  0  0  0  0  0  0  0  0
  -25.8041   -1.0324   30.0571 C   0  0  0  0  0  0  0  0  0  0  0  0
  -27.9437   -0.9869   31.2075 C   0  0  0  0  0  0  0  0  0  0  0  0
  -26.5825   -1.0386   31.2231 C   0  0  0  0  0  0  0  0  0  0  0  0
  -24.3810   -1.1082   30.0855 C   0  0  0  0  0  0  0  0  0  0  0  0
  -23.7055    0.0955   29.8440 C   0  0  0  0  0  0  0  0  0  0  0  0
  -22.4285    0.1160   29.2171 C   0  0  0  0  0  0  0  0  0  0  0  0
  -21.8149    1.2942   28.8765 C   0  0  0  0  0  0  0  0  0  0  0  0
  -24.1974    1.3766   30.2708 C   0  0  0  0  0  0  0  0  0  0  0  0
  -23.6703    2.5778   29.8431 C   0  0  0  0  0  0  0  0  0  0  0  0
  -22.4202    2.5641   29.1385 C   0  0  0  0  0  0  0  0  0  0  0  0
  -30.3164   -0.6900   29.8548 Cl  0  0  0  0  0  0  0  0  0  0  0  0
  -25.8204   -0.8205   27.7334 F   0  0  0  0  0  0  0  0  0  0  0  0
  -23.8357   -2.1856   30.2898 O   0  0  0  0  0  0  0  0  0  0  0  0
  4  7  1  0
  7  8  1  0
  2 14  1  0
  3 15  1  0
  7 16  2  0
  8  9  2  0
  9 10  1  0
 10 13  2  0
 13 12  1  0
 12 11  2  0
 11  8  1  0
  1  2  2  0
  2  5  1  0
  5  6  2  0
  6  4  1  0
  4  3  2  0
  3  1  1  0
M  END

$$$$
