No_395-gen_results/8p0m/2024-11-27-11-27-31/
     RDKit          3D

 26 27  0  0  0  0  0  0  0  0999 V2000
  -28.0162   -0.8135   28.8779 C   0  0  0  0  0  0  0  0  0  0  0  0
  -28.4690   -0.7850   29.8287 C   0  0  0  0  0  0  0  0  0  0  0  0
  -27.0871    0.2903   28.6377 C   0  0  0  0  0  0  0  0  0  0  0  0
  -26.8317    1.2487   29.5869 C   0  0  0  0  0  0  0  0  0  0  0  0
  -28.3914    0.0801   31.0065 C   0  0  0  0  0  0  0  0  0  0  0  0
  -27.4940    1.1521   30.7841 C   0  0  0  0  0  0  0  0  0  0  0  0
  -26.3172    0.3994   27.3653 C   0  0  0  0  0  0  0  0  0  0  0  0
  -24.9405    0.2550   27.5028 C   0  0  0  0  0  0  0  0  0  0  0  0
  -26.9129    0.5860   26.1397 C   0  0  0  0  0  0  0  0  0  0  0  0
  -26.1769    0.4192   24.9937 C   0  0  0  0  0  0  0  0  0  0  0  0
  -24.1017    0.5240   26.3568 C   0  0  0  0  0  0  0  0  0  0  0  0
  -24.7643    0.5306   25.0844 C   0  0  0  0  0  0  0  0  0  0  0  0
  -28.3662    0.4705   26.0088 C   0  0  0  0  0  0  0  0  0  0  0  0
  -28.9377    0.0843   25.0190 O   0  0  0  0  0  0  0  0  0  0  0  0
  -29.1035    1.2609   26.8550 O   0  0  0  0  0  0  0  0  0  0  0  0
  -29.6228   -2.1736   30.2479 Cl  0  0  0  0  0  0  0  0  0  0  0  0
  -30.4847    1.2186   26.8472 C   0  0  0  0  0  0  0  0  0  0  0  0
  -31.1510    2.2748   26.5296 C   0  0  0  0  0  0  0  0  0  0  0  0
  -30.5821    3.3131   26.4823 O   0  0  0  0  0  0  0  0  0  0  0  0
  -32.3765    2.2041   26.2639 O   0  0  0  0  0  0  0  0  0  0  0  0
  -30.9325    0.1118   27.2738 O   0  0  0  0  0  0  0  0  0  0  0  0
  -24.1561    0.2376   28.7564 C   0  0  0  0  0  0  0  0  0  0  0  0
  -23.5609   -0.9544   29.0804 C   0  0  0  0  0  0  0  0  0  0  0  0
  -23.9841   -2.0281   29.2764 C   0  0  0  0  0  0  0  0  0  0  0  0
  -22.0534   -0.7648   29.1526 C   0  0  0  0  0  0  0  0  0  0  0  0
  -24.7211   -2.9305   29.5213 N   0  0  0  0  0  0  0  0  0  0  0  0
  3  7  1  0
  9 13  1  0
 13 14  2  0
 13 15  1  0
  2 16  1  0
 15 17  1  0
 17 18  1  0
 18 19  2  0
 18 20  1  0
 17 21  2  0
  8 22  1  0
 22 23  1  0
 23 24  1  0
 23 25  1  0
 24 26  3  0
  7  8  2  0
  8 11  1  0
 11 12  2  0
 12 10  1  0
 10  9  2  0
  9  7  1  0
  1  2  2  0
  2  5  1  0
  5  6  2  0
  6  4  1  0
  4  3  2  0
  3  1  1  0
M  END

$$$$
