No_3525-gen_results/8p0m/2024-11-27-11-27-31/
     RDKit          3D

 17 19  0  0  0  0  0  0  0  0999 V2000
  -28.0162   -0.8135   28.8779 C   0  0  0  0  0  0  0  0  0  0  0  0
  -27.0636   -0.1190   28.6079 C   0  0  0  0  0  0  0  0  0  0  0  0
  -26.9716    0.7139   27.5060 C   0  0  0  0  0  0  0  0  0  0  0  0
  -28.1053    0.7744   26.6421 C   0  0  0  0  0  0  0  0  0  0  0  0
  -29.2008    0.1044   27.0527 C   0  0  0  0  0  0  0  0  0  0  0  0
  -29.2096   -0.6029   28.1853 C   0  0  0  0  0  0  0  0  0  0  0  0
  -30.3749    0.2232   26.1670 C   0  0  0  0  0  0  0  0  0  0  0  0
  -30.3266    0.0573   24.9664 O   0  0  0  0  0  0  0  0  0  0  0  0
  -31.5813    0.2914   26.7235 O   0  0  0  0  0  0  0  0  0  0  0  0
  -25.8628   -0.2974   29.5996 C   0  0  0  0  0  0  0  0  0  0  0  0
  -24.9074    0.1878   29.6628 C   0  0  0  0  0  0  0  0  0  0  0  0
  -23.7639    0.1426   30.1616 C   0  0  0  0  0  0  0  0  0  0  0  0
  -22.5737    0.9151   29.9745 C   0  0  0  0  0  0  0  0  0  0  0  0
  -22.6056    1.7643   28.8625 C   0  0  0  0  0  0  0  0  0  0  0  0
  -23.7143    1.8613   28.0633 C   0  0  0  0  0  0  0  0  0  0  0  0
  -24.7669    1.1222   28.3443 C   0  0  0  0  0  0  0  0  0  0  0  0
  -25.9144    1.2484   27.4662 C   0  0  0  0  0  0  0  0  0  0  0  0
  5  7  1  0
  7  8  2  0
  7  9  1  0
 11 12  1  0
 12 13  2  0
 13 14  1  0
 14 15  2  0
 15 16  1  0
  1  2  2  0
  3  4  2  0
  4  5  1  0
  5  6  2  0
  6  1  1  0
  2  3  1  0
  3 17  1  0
 17 16  2  0
 16 11  1  0
 11 10  2  0
 10  2  1  0
M  END

$$$$
