No_3299-gen_results/8p0m/2024-11-27-11-27-31/
     RDKit          3D

 26 28  0  0  0  0  0  0  0  0999 V2000
  -28.1229   -1.3353   28.4874 O   0  0  0  0  0  0  0  0  0  0  0  0
  -27.4806   -0.4044   28.7094 C   0  0  0  0  0  0  0  0  0  0  0  0
  -26.3804   -0.0867   27.9394 C   0  0  0  0  0  0  0  0  0  0  0  0
  -27.6664    0.4468   29.8988 N   0  0  0  0  0  0  0  0  0  0  0  0
  -25.1773   -0.4388   28.3946 C   0  0  0  0  0  0  0  0  0  0  0  0
  -23.9281   -0.2469   27.6677 C   0  0  0  0  0  0  0  0  0  0  0  0
  -22.6980   -0.4046   28.4363 C   0  0  0  0  0  0  0  0  0  0  0  0
  -22.7797   -1.1458   29.6708 C   0  0  0  0  0  0  0  0  0  0  0  0
  -23.9693   -1.4630   30.2503 C   0  0  0  0  0  0  0  0  0  0  0  0
  -25.1522   -1.1248   29.6547 C   0  0  0  0  0  0  0  0  0  0  0  0
  -27.0810    1.6754   30.1039 C   0  0  0  0  0  0  0  0  0  0  0  0
  -26.6042    1.8668   31.2729 C   0  0  0  0  0  0  0  0  0  0  0  0
  -27.1392    2.5868   29.0663 C   0  0  0  0  0  0  0  0  0  0  0  0
  -25.9604    3.1775   31.5670 C   0  0  0  0  0  0  0  0  0  0  0  0
  -26.5648    3.9234   29.3830 C   0  0  0  0  0  0  0  0  0  0  0  0
  -26.0125    4.1977   30.6215 C   0  0  0  0  0  0  0  0  0  0  0  0
  -26.5673    0.5114   26.6412 C   0  0  0  0  0  0  0  0  0  0  0  0
  -27.3138    0.4121   25.7450 N   0  0  0  0  0  0  0  0  0  0  0  0
  -28.2466   -0.4281   25.6854 C   0  0  0  0  0  0  0  0  0  0  0  0
  -29.1603   -0.3762   24.4922 C   0  0  0  0  0  0  0  0  0  0  0  0
  -25.5561    1.5111   26.4238 O   0  0  0  0  0  0  0  0  0  0  0  0
  -30.2062   -1.2922   24.4740 C   0  0  0  0  0  0  0  0  0  0  0  0
  -30.8452   -1.7085   25.5845 C   0  0  0  0  0  0  0  0  0  0  0  0
  -30.3452   -1.2540   26.8466 C   0  0  0  0  0  0  0  0  0  0  0  0
  -28.8943   -0.7753   26.8279 C   0  0  0  0  0  0  0  0  0  0  0  0
  -29.2162    0.4166   27.4429 O   0  0  0  0  0  0  0  0  0  0  0  0
  1  2  2  0
  2  3  1  0
  2  4  1  0
  4 11  1  0
  3 17  1  0
 17 18  1  0
 18 19  1  0
 17 21  2  0
 25 26  1  0
  3  5  1  0
 11 12  2  0
 12 14  1  0
 14 16  2  0
 16 15  1  0
 15 13  2  0
 13 11  1  0
 19 20  2  0
 20 22  1  0
 22 23  2  0
 23 24  1  0
 24 25  2  0
 25 19  1  0
  5  6  2  0
  6  7  1  0
  7  8  2  0
  8  9  1  0
  9 10  2  0
 10  5  1  0
M  END

$$$$
