No_3127-gen_results/8p0m/2024-11-27-11-27-31/
     RDKit          3D

 15 16  0  0  0  0  0  0  0  0999 V2000
  -28.1229   -1.3353   28.4874 O   0  0  0  0  0  0  0  0  0  0  0  0
  -27.4806   -0.4044   28.7094 C   0  0  0  0  0  0  0  0  0  0  0  0
  -27.1904    0.2460   29.5268 C   0  0  0  0  0  0  0  0  0  0  0  0
  -26.6872   -0.0001   27.4423 N   0  0  0  0  0  0  0  0  0  0  0  0
  -27.6511    0.1259   30.8799 C   0  0  0  0  0  0  0  0  0  0  0  0
  -25.7508    1.0047   27.4342 C   0  0  0  0  0  0  0  0  0  0  0  0
  -25.5610    1.6907   28.6120 C   0  0  0  0  0  0  0  0  0  0  0  0
  -26.1559    1.3682   29.6808 C   0  0  0  0  0  0  0  0  0  0  0  0
  -28.2982   -0.8789   31.1399 C   0  0  0  0  0  0  0  0  0  0  0  0
  -29.0668   -1.3493   32.0422 C   0  0  0  0  0  0  0  0  0  0  0  0
  -29.7906   -2.5679   32.0142 C   0  0  0  0  0  0  0  0  0  0  0  0
  -29.5573   -3.4758   30.9777 C   0  0  0  0  0  0  0  0  0  0  0  0
  -28.6335   -3.1543   29.9972 C   0  0  0  0  0  0  0  0  0  0  0  0
  -28.0985   -2.2550   30.0532 C   0  0  0  0  0  0  0  0  0  0  0  0
  -26.4748   -2.5228   30.0947 C   0  0  0  0  0  0  0  0  0  0  0  0
  1  2  2  0
  2  3  1  0
  2  4  1  0
  3  5  1  0
  6  7  1  0
  3  8  1  0
  5  9  1  0
 14 15  1  0
  8  7  1  0
  6  4  1  0
  9 10  2  0
 10 11  1  0
 11 12  2  0
 12 13  1  0
 13 14  2  0
 14  9  1  0
M  END

$$$$
