No_3023-gen_results/8p0m/2024-11-27-11-27-31/
     RDKit          3D

 19 21  0  0  0  0  0  0  0  0999 V2000
  -28.0162   -0.8135   28.8779 C   0  0  0  0  0  0  0  0  0  0  0  0
  -28.4690   -0.7850   29.8287 C   0  0  0  0  0  0  0  0  0  0  0  0
  -26.5455   -0.8762   28.8500 C   0  0  0  0  0  0  0  0  0  0  0  0
  -25.6825   -0.7773   27.6829 C   0  0  0  0  0  0  0  0  0  0  0  0
  -27.9181   -1.0034   31.1877 C   0  0  0  0  0  0  0  0  0  0  0  0
  -26.5308   -1.0794   31.2463 C   0  0  0  0  0  0  0  0  0  0  0  0
  -25.7798   -1.0462   30.0905 C   0  0  0  0  0  0  0  0  0  0  0  0
  -24.3676   -0.2501   27.7918 C   0  0  0  0  0  0  0  0  0  0  0  0
  -24.0047    0.5917   28.2328 C   0  0  0  0  0  0  0  0  0  0  0  0
  -22.5783    1.0222   28.4347 C   0  0  0  0  0  0  0  0  0  0  0  0
  -21.6826    0.2200   28.8106 C   0  0  0  0  0  0  0  0  0  0  0  0
  -22.1095   -1.2072   28.7880 C   0  0  0  0  0  0  0  0  0  0  0  0
  -23.4384   -1.4740   28.4292 C   0  0  0  0  0  0  0  0  0  0  0  0
  -24.8395    1.9811   27.9384 C   0  0  0  0  0  0  0  0  0  0  0  0
  -24.8959    2.6991   27.0836 C   0  0  0  0  0  0  0  0  0  0  0  0
  -25.5210    2.4070   29.2831 C   0  0  0  0  0  0  0  0  0  0  0  0
  -26.5077    3.3454   29.2665 C   0  0  0  0  0  0  0  0  0  0  0  0
  -25.8049    3.8234   26.9787 C   0  0  0  0  0  0  0  0  0  0  0  0
  -26.5351    4.1966   28.0901 C   0  0  0  0  0  0  0  0  0  0  0  0
  3  4  1  0
  4  8  1  0
  9 14  1  0
 14 15  2  0
 15 18  1  0
 18 19  2  0
 19 17  1  0
 17 16  2  0
 16 14  1  0
  8  9  1  0
  9 10  2  0
 10 11  1  0
 11 12  2  0
 12 13  1  0
 13  8  2  0
  1  2  2  0
  2  5  1  0
  5  6  2  0
  6  7  1  0
  7  3  2  0
  3  1  1  0
M  END

$$$$
