No_3880-gen_results/8p0m/2024-11-27-11-27-31/
     RDKit          3D

 14 14  0  0  0  0  0  0  0  0999 V2000
  -28.0162   -0.8135   28.8779 C   0  0  0  0  0  0  0  0  0  0  0  0
  -27.0636   -0.1190   28.6079 C   0  0  0  0  0  0  0  0  0  0  0  0
  -25.7647   -0.3897   29.0360 C   0  0  0  0  0  0  0  0  0  0  0  0
  -24.5516    0.4058   28.7646 C   0  0  0  0  0  0  0  0  0  0  0  0
  -24.6957    1.4480   27.7988 C   0  0  0  0  0  0  0  0  0  0  0  0
  -25.9755    1.7250   27.3077 C   0  0  0  0  0  0  0  0  0  0  0  0
  -27.0718    1.0134   27.6535 C   0  0  0  0  0  0  0  0  0  0  0  0
  -28.6178   -0.4695   30.2207 C   0  0  0  0  0  0  0  0  0  0  0  0
  -29.5947   -1.3785   30.5744 F   0  0  0  0  0  0  0  0  0  0  0  0
  -27.7242   -0.6402   31.1943 F   0  0  0  0  0  0  0  0  0  0  0  0
  -29.1326    0.7085   30.2221 F   0  0  0  0  0  0  0  0  0  0  0  0
  -23.5226    2.2677   27.5531 C   0  0  0  0  0  0  0  0  0  0  0  0
  -23.7534    3.2965   26.8980 F   0  0  0  0  0  0  0  0  0  0  0  0
  -22.7729    2.5992   28.5710 F   0  0  0  0  0  0  0  0  0  0  0  0
  1  8  1  0
  8  9  1  0
  8 10  1  0
  8 11  1  0
  5 12  1  0
 12 13  1  0
 12 14  1  0
  1  2  1  0
  2  3  2  0
  3  4  1  0
  4  5  2  0
  5  6  1  0
  6  7  2  0
  7  2  1  0
M  END

$$$$
