No_3706-gen_results/8p0m/2024-11-27-11-27-31/
     RDKit          3D

 20 20  0  0  0  0  0  0  0  0999 V2000
  -28.0162   -0.8135   28.8779 C   0  0  0  0  0  0  0  0  0  0  0  0
  -27.0636   -0.1189   28.6079 C   0  0  0  0  0  0  0  0  0  0  0  0
  -26.9716    0.7139   27.5060 C   0  0  0  0  0  0  0  0  0  0  0  0
  -28.1053    0.7744   26.6421 C   0  0  0  0  0  0  0  0  0  0  0  0
  -29.2008    0.1044   27.0527 C   0  0  0  0  0  0  0  0  0  0  0  0
  -28.0219   -1.5899   30.0879 C   0  0  0  0  0  0  0  0  0  0  0  0
  -29.1640   -0.6394   28.1484 C   0  0  0  0  0  0  0  0  0  0  0  0
  -28.8376   -1.8977   30.7662 N   0  0  0  0  0  0  0  0  0  0  0  0
  -26.7856   -1.9477   30.5474 O   0  0  0  0  0  0  0  0  0  0  0  0
  -28.8380   -2.8804   31.8973 C   0  0  0  0  0  0  0  0  0  0  0  0
  -30.3883    0.2139   26.1798 C   0  0  0  0  0  0  0  0  0  0  0  0
  -30.4197    0.2955   24.9970 O   0  0  0  0  0  0  0  0  0  0  0  0
  -31.5758    0.0487   26.7758 O   0  0  0  0  0  0  0  0  0  0  0  0
  -30.1493   -3.5932   32.1171 C   0  0  0  0  0  0  0  0  0  0  0  0
  -31.0188   -3.0886   32.4264 C   0  0  0  0  0  0  0  0  0  0  0  0
  -31.8743   -2.5717   31.8069 C   0  0  0  0  0  0  0  0  0  0  0  0
  -33.1057   -1.8319   32.2429 C   0  0  0  0  0  0  0  0  0  0  0  0
  -33.9659   -1.1772   31.3758 C   0  0  0  0  0  0  0  0  0  0  0  0
  -33.6469   -1.2119   29.9874 C   0  0  0  0  0  0  0  0  0  0  0  0
  -32.5204   -1.8644   29.5077 C   0  0  0  0  0  0  0  0  0  0  0  0
  1  6  1  0
  6  8  1  0
  6  9  2  0
  8 10  1  0
  5 11  1  0
 11 12  2  0
 11 13  1  0
 10 14  1  0
 14 15  1  0
 15 16  2  3
 16 17  1  0
 17 18  2  3
 18 19  1  0
 19 20  2  0
  1  2  2  0
  2  3  1  0
  3  4  2  0
  4  5  1  0
  5  7  2  0
  7  1  1  0
M  END

$$$$
