No_3732-gen_results/8p0m/2024-11-27-11-27-31/
     RDKit          3D

 35 37  0  0  0  0  0  0  0  0999 V2000
  -28.0162   -0.8135   28.8779 C   0  0  0  0  0  0  0  0  0  0  0  0
  -27.0636   -0.1190   28.6079 C   0  0  0  0  0  0  0  0  0  0  0  0
  -27.0010    0.6913   27.4910 C   0  0  0  0  0  0  0  0  0  0  0  0
  -25.8548    1.4825   27.0830 C   0  0  0  0  0  0  0  0  0  0  0  0
  -24.6901    1.4526   27.8807 C   0  0  0  0  0  0  0  0  0  0  0  0
  -24.7379    0.6010   29.0416 C   0  0  0  0  0  0  0  0  0  0  0  0
  -25.8234   -0.1688   29.3887 C   0  0  0  0  0  0  0  0  0  0  0  0
  -28.7350   -0.4637   30.1419 C   0  0  0  0  0  0  0  0  0  0  0  0
  -29.8111   -1.3049   30.6007 C   0  0  0  0  0  0  0  0  0  0  0  0
  -23.5152    2.1989   27.5480 C   0  0  0  0  0  0  0  0  0  0  0  0
  -23.5891    2.9489   26.6143 F   0  0  0  0  0  0  0  0  0  0  0  0
  -22.9825    2.9112   28.5810 F   0  0  0  0  0  0  0  0  0  0  0  0
  -22.4236    1.3368   27.3011 F   0  0  0  0  0  0  0  0  0  0  0  0
  -29.9651   -2.3689   30.1055 N   0  0  0  0  0  0  0  0  0  0  0  0
  -30.5076   -0.9731   31.6546 O   0  0  0  0  0  0  0  0  0  0  0  0
  -31.0781   -3.2819   30.5712 C   0  0  0  0  0  0  0  0  0  0  0  0
  -30.9646   -4.4894   29.8423 C   0  0  0  0  0  0  0  0  0  0  0  0
  -31.4607   -5.6287   30.3669 C   0  0  0  0  0  0  0  0  0  0  0  0
  -31.4131   -6.7715   29.6994 C   0  0  0  0  0  0  0  0  0  0  0  0
  -31.0407   -6.8269   28.3069 C   0  0  0  0  0  0  0  0  0  0  0  0
  -30.6110   -5.6350   27.7305 C   0  0  0  0  0  0  0  0  0  0  0  0
  -30.5787   -4.5746   28.4709 C   0  0  0  0  0  0  0  0  0  0  0  0
  -31.1058   -8.3680   27.2053 Br  0  0  0  0  0  0  0  0  0  0  0  0
  -28.1286    0.7980   26.5907 C   0  0  0  0  0  0  0  0  0  0  0  0
  -28.2972    0.6095   25.6229 O   0  0  0  0  0  0  0  0  0  0  0  0
  -29.3370    1.1382   27.3419 N   0  0  0  0  0  0  0  0  0  0  0  0
  -30.6015    1.2602   26.6913 C   0  0  0  0  0  0  0  0  0  0  0  0
  -31.2285    2.2289   27.0376 C   0  0  0  0  0  0  0  0  0  0  0  0
  -32.2795    2.7004   26.4261 C   0  0  0  0  0  0  0  0  0  0  0  0
  -32.7593    1.9503   25.2642 C   0  0  0  0  0  0  0  0  0  0  0  0
  -32.0141    0.8804   24.8405 C   0  0  0  0  0  0  0  0  0  0  0  0
  -30.8527    0.5291   25.5617 C   0  0  0  0  0  0  0  0  0  0  0  0
  -29.0934    0.9896   30.2170 N   0  0  0  0  0  0  0  0  0  0  0  0
  -29.1053    1.6163   31.4506 C   0  0  0  0  0  0  0  0  0  0  0  0
  -28.7607    2.7037   31.6259 C   0  0  0  0  0  0  0  0  0  0  0  0
  1  2  1  0
  1  8  1  0
  8  9  1  0
  5 10  1  0
 10 11  1  0
 10 12  1  0
 10 13  1  0
  9 14  1  0
  9 15  2  0
 14 16  1  0
 16 17  1  0
 20 23  1  0
  3 24  1  0
 24 25  2  0
 24 26  1  0
 26 27  1  0
  8 33  1  0
 33 34  1  0
 34 35  2  0
 17 18  2  0
 18 19  1  0
 19 20  2  0
 20 21  1  0
 21 22  2  0
 22 17  1  0
  2  3  1  0
  3  4  2  0
  4  5  1  0
  5  6  2  0
  6  7  1  0
  7  2  2  0
 27 28  2  0
 28 29  1  0
 29 30  2  0
 30 31  1  0
 31 32  2  0
 32 27  1  0
M  END

$$$$
