No_3571-gen_results/8p0m/2024-11-27-11-27-31/
     RDKit          3D

 35 37  0  0  0  0  0  0  0  0999 V2000
  -28.0162   -0.8135   28.8779 C   0  0  0  0  0  0  0  0  0  0  0  0
  -27.0636   -0.1189   28.6079 C   0  0  0  0  0  0  0  0  0  0  0  0
  -25.7647   -0.3897   29.0360 C   0  0  0  0  0  0  0  0  0  0  0  0
  -24.5517    0.4058   28.7646 C   0  0  0  0  0  0  0  0  0  0  0  0
  -23.2300    0.1178   29.2575 C   0  0  0  0  0  0  0  0  0  0  0  0
  -23.0942   -1.1309   29.8730 C   0  0  0  0  0  0  0  0  0  0  0  0
  -27.7981   -1.9341   29.8560 C   0  0  0  0  0  0  0  0  0  0  0  0
  -26.5420   -2.3269   30.2580 C   0  0  0  0  0  0  0  0  0  0  0  0
  -25.4514   -1.5516   29.9079 C   0  0  0  0  0  0  0  0  0  0  0  0
  -24.1562   -1.9097   30.2809 C   0  0  0  0  0  0  0  0  0  0  0  0
  -24.6450    1.6582   27.9464 C   0  0  0  0  0  0  0  0  0  0  0  0
  -24.8672    2.6101   28.4224 O   0  0  0  0  0  0  0  0  0  0  0  0
  -24.0486    1.5391   26.7285 O   0  0  0  0  0  0  0  0  0  0  0  0
  -29.0240   -2.7254   30.2769 C   0  0  0  0  0  0  0  0  0  0  0  0
  -28.9684   -3.8775   30.4490 O   0  0  0  0  0  0  0  0  0  0  0  0
  -30.0974   -2.1174   30.5067 O   0  0  0  0  0  0  0  0  0  0  0  0
  -27.2703    1.0724   27.6930 C   0  0  0  0  0  0  0  0  0  0  0  0
  -26.7298    1.6277   26.9932 O   0  0  0  0  0  0  0  0  0  0  0  0
  -28.5568    1.5418   28.1107 O   0  0  0  0  0  0  0  0  0  0  0  0
  -31.0671   -2.5791   31.0997 C   0  0  0  0  0  0  0  0  0  0  0  0
  -31.1494   -2.3215   32.4298 C   0  0  0  0  0  0  0  0  0  0  0  0
  -30.6293   -1.0942   32.7708 C   0  0  0  0  0  0  0  0  0  0  0  0
  -31.2011    0.0705   32.3552 C   0  0  0  0  0  0  0  0  0  0  0  0
  -31.1563    1.0290   32.7498 C   0  0  0  0  0  0  0  0  0  0  0  0
  -30.1694    1.3949   33.8473 C   0  0  0  0  0  0  0  0  0  0  0  0
  -29.5630    0.2968   34.4552 C   0  0  0  0  0  0  0  0  0  0  0  0
  -29.7845   -0.9668   33.9662 C   0  0  0  0  0  0  0  0  0  0  0  0
  -29.0743   -2.0632   34.5513 C   0  0  0  0  0  0  0  0  0  0  0  0
  -28.0618   -1.8988   35.1891 O   0  0  0  0  0  0  0  0  0  0  0  0
  -29.4699   -3.2617   34.2296 O   0  0  0  0  0  0  0  0  0  0  0  0
  -32.3772   -1.9422   30.4546 C   0  0  0  0  0  0  0  0  0  0  0  0
  -33.3497   -2.8428   30.0120 C   0  0  0  0  0  0  0  0  0  0  0  0
  -33.2408   -4.0680   30.1970 C   0  0  0  0  0  0  0  0  0  0  0  0
  -32.2915   -4.5417   31.0559 C   0  0  0  0  0  0  0  0  0  0  0  0
  -32.2199   -5.9870   31.3712 C   0  0  0  0  0  0  0  0  0  0  0  0
  4 11  1  0
 11 12  2  0
 11 13  1  0
  7 14  1  0
 14 15  2  0
 14 16  1  0
  2 17  1  0
 17 18  2  0
 17 19  1  0
 16 20  1  0
 20 21  1  0
 21 22  1  0
 27 28  1  0
 28 29  2  0
 28 30  1  0
 20 31  1  0
 31 32  1  0
 32 33  2  3
 33 34  1  0
 34 35  2  0
 22 23  2  0
 23 24  1  0
 24 25  2  0
 25 26  1  0
 26 27  2  0
 27 22  1  0
  1  2  2  0
  2  3  1  0
  9  8  1  0
  8  7  2  0
  7  1  1  0
  3  4  2  0
  4  5  1  0
  5  6  2  0
  6 10  1  0
 10  9  2  0
  9  3  1  0
M  END

$$$$
