No_3228-gen_results/8p0m/2024-11-27-11-27-31/
     RDKit          3D

 17 17  0  0  0  0  0  0  0  0999 V2000
  -28.0162   -0.8135   28.8779 C   0  0  0  0  0  0  0  0  0  0  0  0
  -27.0636   -0.1189   28.6079 C   0  0  0  0  0  0  0  0  0  0  0  0
  -25.7923   -0.4302   29.0761 C   0  0  0  0  0  0  0  0  0  0  0  0
  -24.5456    0.3494   28.8225 C   0  0  0  0  0  0  0  0  0  0  0  0
  -24.6586    1.4196   27.8878 C   0  0  0  0  0  0  0  0  0  0  0  0
  -25.9471    1.6811   27.3792 C   0  0  0  0  0  0  0  0  0  0  0  0
  -27.0439    0.9739   27.6871 C   0  0  0  0  0  0  0  0  0  0  0  0
  -28.6643   -0.5274   30.1017 N   0  0  0  0  0  0  0  0  0  0  0  0
  -29.6646   -0.3963   30.4406 C   0  0  0  0  0  0  0  0  0  0  0  0
  -30.5503   -0.5789   29.6038 F   0  0  0  0  0  0  0  0  0  0  0  0
  -30.1937   -0.0968   31.6361 O   0  0  0  0  0  0  0  0  0  0  0  0
  -23.4528    2.1614   27.5915 C   0  0  0  0  0  0  0  0  0  0  0  0
  -22.2491    1.7512   28.0724 N   0  0  0  0  0  0  0  0  0  0  0  0
  -23.4830    3.0213   26.5680 N   0  0  0  0  0  0  0  0  0  0  0  0
  -28.3320    1.3413   27.0837 C   0  0  0  0  0  0  0  0  0  0  0  0
  -28.8606    2.3819   27.4524 C   0  0  0  0  0  0  0  0  0  0  0  0
  -30.1440    2.8356   26.8687 C   0  0  0  0  0  0  0  0  0  0  0  0
  1  2  1  0
  1  8  1  0
  8  9  1  0
  9 10  1  0
  9 11  2  0
  5 12  1  0
 12 13  2  0
 12 14  1  0
  7 15  1  0
 15 16  2  3
 16 17  1  0
  2  3  2  0
  3  4  1  0
  4  5  2  0
  5  6  1  0
  6  7  2  0
  7  2  1  0
M  END

$$$$
