No_3085-gen_results/8p0m/2024-11-27-11-27-31/
     RDKit          3D

 16 17  0  0  0  0  0  0  0  0999 V2000
  -28.0162   -0.8135   28.8779 C   0  0  0  0  0  0  0  0  0  0  0  0
  -27.0636   -0.1190   28.6079 C   0  0  0  0  0  0  0  0  0  0  0  0
  -26.9716    0.7139   27.5060 C   0  0  0  0  0  0  0  0  0  0  0  0
  -28.1053    0.7744   26.6421 C   0  0  0  0  0  0  0  0  0  0  0  0
  -29.2008    0.1044   27.0527 C   0  0  0  0  0  0  0  0  0  0  0  0
  -28.0219   -1.5899   30.0879 C   0  0  0  0  0  0  0  0  0  0  0  0
  -29.1640   -0.6394   28.1484 C   0  0  0  0  0  0  0  0  0  0  0  0
  -27.0234   -2.3569   30.3744 N   0  0  0  0  0  0  0  0  0  0  0  0
  -29.0647   -1.7680   30.8027 O   0  0  0  0  0  0  0  0  0  0  0  0
  -30.2930    0.2074   26.2540 O   0  0  0  0  0  0  0  0  0  0  0  0
  -25.6955    1.4250   27.1138 C   0  0  0  0  0  0  0  0  0  0  0  0
  -25.5636    2.5018   26.5069 C   0  0  0  0  0  0  0  0  0  0  0  0
  -24.3060    3.1769   26.2617 C   0  0  0  0  0  0  0  0  0  0  0  0
  -23.1406    2.5406   26.6961 C   0  0  0  0  0  0  0  0  0  0  0  0
  -24.4262    0.8313   27.5693 C   0  0  0  0  0  0  0  0  0  0  0  0
  -23.2546    1.3745   27.3950 C   0  0  0  0  0  0  0  0  0  0  0  0
  1  6  1  0
  6  8  1  0
  6  9  2  0
  5 10  1  0
  3 11  1  0
  1  2  2  0
  2  3  1  0
  3  4  2  0
  4  5  1  0
  5  7  2  0
  7  1  1  0
 11 12  2  0
 12 13  1  0
 13 14  2  0
 14 16  1  0
 16 15  2  0
 15 11  1  0
M  END

$$$$
