No_3621-gen_results/8p0m/2024-11-27-11-27-31/
     RDKit          3D

 25 29  0  0  0  0  0  0  0  0999 V2000
  -28.0162   -0.8135   28.8779 C   0  0  0  0  0  0  0  0  0  0  0  0
  -28.4690   -0.7850   29.8287 C   0  0  0  0  0  0  0  0  0  0  0  0
  -28.1816    0.4277   28.1134 C   0  0  0  0  0  0  0  0  0  0  0  0
  -27.4498    0.6435   26.8500 C   0  0  0  0  0  0  0  0  0  0  0  0
  -26.1815    0.0357   26.7145 C   0  0  0  0  0  0  0  0  0  0  0  0
  -25.7800   -0.9326   27.6938 C   0  0  0  0  0  0  0  0  0  0  0  0
  -26.5568   -1.2134   28.7413 C   0  0  0  0  0  0  0  0  0  0  0  0
  -28.4904   -1.9180   30.6356 O   0  0  0  0  0  0  0  0  0  0  0  0
  -29.2465    0.1645   30.5279 N   0  0  0  0  0  0  0  0  0  0  0  0
  -29.3389    1.4427   30.1509 C   0  0  0  0  0  0  0  0  0  0  0  0
  -28.9938    1.5691   28.6959 C   0  0  0  0  0  0  0  0  0  0  0  0
  -29.1746    2.7617   27.9691 C   0  0  0  0  0  0  0  0  0  0  0  0
  -30.6688    2.0297   30.3395 C   0  0  0  0  0  0  0  0  0  0  0  0
  -31.1343    2.2427   31.2989 C   0  0  0  0  0  0  0  0  0  0  0  0
  -32.4599    2.8160   31.5738 C   0  0  0  0  0  0  0  0  0  0  0  0
  -33.0928    3.2556   30.4160 C   0  0  0  0  0  0  0  0  0  0  0  0
  -32.5512    3.1055   29.2037 C   0  0  0  0  0  0  0  0  0  0  0  0
  -31.2618    2.5182   29.0420 C   0  0  0  0  0  0  0  0  0  0  0  0
  -30.5326    2.8475   27.8809 C   0  0  0  0  0  0  0  0  0  0  0  0
  -31.1467    3.3397   26.7002 C   0  0  0  0  0  0  0  0  0  0  0  0
  -31.8871    2.4759   25.9307 C   0  0  0  0  0  0  0  0  0  0  0  0
  -32.6216    2.8703   24.9405 C   0  0  0  0  0  0  0  0  0  0  0  0
  -30.9750    4.7006   26.3488 C   0  0  0  0  0  0  0  0  0  0  0  0
  -31.6667    5.1396   25.1074 C   0  0  0  0  0  0  0  0  0  0  0  0
  -32.3987    4.2480   24.4101 C   0  0  0  0  0  0  0  0  0  0  0  0
  1  2  1  0
  2  8  2  0
  2  9  1  0
  9 10  1  0
  3 11  1  0
 19 20  1  0
 20 21  2  0
 21 22  1  0
 22 25  2  0
 25 24  1  0
 24 23  2  0
 23 20  1  0
  1  7  2  0
  7  6  1  0
  6  5  2  0
  5  4  1  0
  4  3  2  0
  3  1  1  0
 13 14  1  0
 14 15  2  0
 15 16  1  0
 16 17  2  0
 17 18  1  0
 10 13  2  0
 13 18  1  0
 18 19  2  0
 19 12  1  0
 12 11  2  0
 11 10  1  0
M  END

$$$$
