No_3031-gen_results/8p0m/2024-11-27-11-27-31/
     RDKit          3D

 35 38  0  0  0  0  0  0  0  0999 V2000
  -28.1229   -1.3353   28.4874 O   0  0  0  0  0  0  0  0  0  0  0  0
  -27.0637   -0.8242   28.8687 C   0  0  0  0  0  0  0  0  0  0  0  0
  -25.9464   -1.0396   28.8492 C   0  0  0  0  0  0  0  0  0  0  0  0
  -24.7602   -0.1562   29.1644 C   0  0  0  0  0  0  0  0  0  0  0  0
  -25.0917    1.0791   29.6490 C   0  0  0  0  0  0  0  0  0  0  0  0
  -26.4273    1.4163   29.7020 C   0  0  0  0  0  0  0  0  0  0  0  0
  -27.3961    0.6347   29.4096 C   0  0  0  0  0  0  0  0  0  0  0  0
  -23.3675   -0.5540   29.0951 C   0  0  0  0  0  0  0  0  0  0  0  0
  -22.4260    0.3158   28.8023 N   0  0  0  0  0  0  0  0  0  0  0  0
  -23.0441   -1.7734   29.2286 O   0  0  0  0  0  0  0  0  0  0  0  0
  -21.2184    0.0906   28.2662 C   0  0  0  0  0  0  0  0  0  0  0  0
  -28.6921    0.9077   29.4709 O   0  0  0  0  0  0  0  0  0  0  0  0
  -29.2741    1.8476   29.9348 C   0  0  0  0  0  0  0  0  0  0  0  0
  -30.4977    1.9279   29.8313 C   0  0  0  0  0  0  0  0  0  0  0  0
  -31.2703    3.0707   30.3577 C   0  0  0  0  0  0  0  0  0  0  0  0
  -32.6721    3.1980   30.2915 C   0  0  0  0  0  0  0  0  0  0  0  0
  -33.3529    2.1361   29.6726 C   0  0  0  0  0  0  0  0  0  0  0  0
  -32.7475    1.0458   29.1529 C   0  0  0  0  0  0  0  0  0  0  0  0
  -31.3765    0.9477   29.2554 C   0  0  0  0  0  0  0  0  0  0  0  0
  -34.8407    2.2182   29.5623 C   0  0  0  0  0  0  0  0  0  0  0  0
  -35.4797    3.1600   30.2391 C   0  0  0  0  0  0  0  0  0  0  0  0
  -34.6702    4.2240   30.8573 C   0  0  0  0  0  0  0  0  0  0  0  0
  -33.3215    4.2447   30.9252 C   0  0  0  0  0  0  0  0  0  0  0  0
  -36.9035    3.2931   30.1760 C   0  0  0  0  0  0  0  0  0  0  0  0
  -37.6477    2.5330   29.7130 C   0  0  0  0  0  0  0  0  0  0  0  0
  -37.1087    1.3168   29.2226 C   0  0  0  0  0  0  0  0  0  0  0  0
  -35.6240    1.1722   29.1053 C   0  0  0  0  0  0  0  0  0  0  0  0
  -37.8729    0.2348   28.5597 C   0  0  0  0  0  0  0  0  0  0  0  0
  -38.9205   -0.0992   28.5682 O   0  0  0  0  0  0  0  0  0  0  0  0
  -37.0531   -0.6101   27.7650 O   0  0  0  0  0  0  0  0  0  0  0  0
  -28.3890    3.0661   30.7565 Cl  0  0  0  0  0  0  0  0  0  0  0  0
  -32.5790    5.2775   31.5765 C   0  0  0  0  0  0  0  0  0  0  0  0
  -31.4744    5.5582   32.4940 Br  0  0  0  0  0  0  0  0  0  0  0  0
  -33.3555    6.6318   31.1154 C   0  0  0  0  0  0  0  0  0  0  0  0
  -37.6092   -1.4389   26.9564 C   0  0  0  0  0  0  0  0  0  0  0  0
  1  2  2  0
  2  3  1  0
  3  4  1  0
  5  6  1  0
  2  7  1  0
  4  8  1  0
  8  9  1  0
  8 10  2  0
  9 11  1  0
  7 12  1  0
 12 13  1  0
 26 28  1  0
 28 29  2  0
 28 30  1  0
 13 31  1  0
 23 32  1  0
 32 33  1  0
 32 34  1  0
 30 35  1  0
 13 14  1  0
  4  5  1  0
  6  7  1  0
 21 24  1  0
 24 25  2  0
 25 26  1  0
 26 27  2  0
 27 20  1  0
 17 20  2  0
 20 21  1  0
 21 22  2  0
 22 23  1  0
 23 16  2  0
 14 15  2  0
 15 16  1  0
 16 17  1  0
 17 18  1  0
 18 19  2  0
 19 14  1  0
M  END

$$$$
