No_3358-gen_results/8p0m/2024-11-27-11-27-31/
     RDKit          3D

 25 27  0  0  0  0  0  0  0  0999 V2000
  -28.0162   -0.8135   28.8779 C   0  0  0  0  0  0  0  0  0  0  0  0
  -27.0636   -0.1190   28.6079 C   0  0  0  0  0  0  0  0  0  0  0  0
  -26.8756    1.1325   28.9134 C   0  0  0  0  0  0  0  0  0  0  0  0
  -27.9014    1.8066   29.6436 C   0  0  0  0  0  0  0  0  0  0  0  0
  -28.9449    1.0388   30.0360 C   0  0  0  0  0  0  0  0  0  0  0  0
  -29.0273   -0.2890   29.7051 C   0  0  0  0  0  0  0  0  0  0  0  0
  -25.6959    1.9505   28.4764 C   0  0  0  0  0  0  0  0  0  0  0  0
  -24.9391    2.5396   29.0693 C   0  0  0  0  0  0  0  0  0  0  0  0
  -25.5215    1.9951   27.0017 C   0  0  0  0  0  0  0  0  0  0  0  0
  -24.3810    2.6045   26.4852 C   0  0  0  0  0  0  0  0  0  0  0  0
  -23.7216    3.2381   28.6854 C   0  0  0  0  0  0  0  0  0  0  0  0
  -23.4672    3.2411   27.3199 C   0  0  0  0  0  0  0  0  0  0  0  0
  -30.0148   -1.0901   30.0587 F   0  0  0  0  0  0  0  0  0  0  0  0
  -24.9589    2.6446   30.9261 Cl  0  0  0  0  0  0  0  0  0  0  0  0
  -25.9883   -0.7083   27.7902 O   0  0  0  0  0  0  0  0  0  0  0  0
  -30.0284    1.6570   30.8936 C   0  0  0  0  0  0  0  0  0  0  0  0
  -30.8726    2.3403   30.3965 C   0  0  0  0  0  0  0  0  0  0  0  0
  -30.7842    3.0761   29.3421 C   0  0  0  0  0  0  0  0  0  0  0  0
  -31.2120    3.8072   28.7576 C   0  0  0  0  0  0  0  0  0  0  0  0
  -30.8483    4.4520   27.4399 C   0  0  0  0  0  0  0  0  0  0  0  0
  -29.7147    3.9404   26.8166 C   0  0  0  0  0  0  0  0  0  0  0  0
  -29.0863    2.9200   27.3897 C   0  0  0  0  0  0  0  0  0  0  0  0
  -29.4973    2.4194   28.6080 C   0  0  0  0  0  0  0  0  0  0  0  0
  -29.6635    1.2837   28.3599 O   0  0  0  0  0  0  0  0  0  0  0  0
  -30.0946    0.4607   27.6002 C   0  0  0  0  0  0  0  0  0  0  0  0
  3  7  1  0
  6 13  1  0
  8 14  1  0
  2 15  1  0
  5 16  1  0
 16 17  1  0
 23 24  1  0
 24 25  1  0
 17 18  1  0
 18 19  2  0
 19 20  1  0
 20 21  2  0
 21 22  1  0
 22 23  2  0
 23 18  1  0
  1  2  2  0
  2  3  1  0
  3  4  2  0
  4  5  1  0
  5  6  2  0
  6  1  1  0
  7  8  2  0
  8 11  1  0
 11 12  2  0
 12 10  1  0
 10  9  2  0
  9  7  1  0
M  END

$$$$
