No_3872-gen_results/8p0m/2024-11-27-11-27-31/
     RDKit          3D

 32 35  0  0  0  0  0  0  0  0999 V2000
  -28.0162   -0.8135   28.8779 C   0  0  0  0  0  0  0  0  0  0  0  0
  -27.0636   -0.1189   28.6079 C   0  0  0  0  0  0  0  0  0  0  0  0
  -25.7647   -0.3897   29.0360 C   0  0  0  0  0  0  0  0  0  0  0  0
  -24.5516    0.4058   28.7646 C   0  0  0  0  0  0  0  0  0  0  0  0
  -23.2300    0.1178   29.2575 C   0  0  0  0  0  0  0  0  0  0  0  0
  -22.1393    0.9427   28.9224 C   0  0  0  0  0  0  0  0  0  0  0  0
  -27.8294   -1.9287   29.8545 C   0  0  0  0  0  0  0  0  0  0  0  0
  -26.5882   -2.3272   30.2682 C   0  0  0  0  0  0  0  0  0  0  0  0
  -25.4565   -1.5432   29.9146 C   0  0  0  0  0  0  0  0  0  0  0  0
  -22.2302    1.9089   27.8723 C   0  0  0  0  0  0  0  0  0  0  0  0
  -24.5538    1.4700   27.7617 C   0  0  0  0  0  0  0  0  0  0  0  0
  -23.4471    2.1666   27.3764 C   0  0  0  0  0  0  0  0  0  0  0  0
  -28.8924   -2.7080   30.2069 O   0  0  0  0  0  0  0  0  0  0  0  0
  -30.0233   -2.1437   30.6362 C   0  0  0  0  0  0  0  0  0  0  0  0
  -31.0915   -2.8162   30.1969 C   0  0  0  0  0  0  0  0  0  0  0  0
  -32.0617   -2.1358   29.5682 C   0  0  0  0  0  0  0  0  0  0  0  0
  -31.2544   -4.2358   30.4000 C   0  0  0  0  0  0  0  0  0  0  0  0
  -33.1872   -2.8449   28.9797 C   0  0  0  0  0  0  0  0  0  0  0  0
  -32.3741   -4.9143   29.8525 C   0  0  0  0  0  0  0  0  0  0  0  0
  -33.3251   -4.2147   29.1806 C   0  0  0  0  0  0  0  0  0  0  0  0
  -34.2648   -2.1123   28.2728 C   0  0  0  0  0  0  0  0  0  0  0  0
  -34.6169   -0.9441   28.7340 C   0  0  0  0  0  0  0  0  0  0  0  0
  -34.6883   -2.6459   27.0460 C   0  0  0  0  0  0  0  0  0  0  0  0
  -35.6624   -0.2385   27.9990 C   0  0  0  0  0  0  0  0  0  0  0  0
  -36.1256   -0.8162   26.8409 C   0  0  0  0  0  0  0  0  0  0  0  0
  -35.6518   -1.9777   26.3500 C   0  0  0  0  0  0  0  0  0  0  0  0
  -30.0136   -1.1222   31.3185 O   0  0  0  0  0  0  0  0  0  0  0  0
  -23.6044    3.0857   26.4249 F   0  0  0  0  0  0  0  0  0  0  0  0
  -32.4542   -6.3553   30.0298 C   0  0  0  0  0  0  0  0  0  0  0  0
  -32.1780   -6.9500   31.0495 N   0  0  0  0  0  0  0  0  0  0  0  0
  -31.7909   -8.1791   31.1722 C   0  0  0  0  0  0  0  0  0  0  0  0
  -31.3512   -8.7949   32.4622 C   0  0  0  0  0  0  0  0  0  0  0  0
  3  4  1  0
  7 13  1  0
 13 14  1  0
 14 15  1  0
 18 21  1  0
 14 27  2  0
 12 28  1  0
 19 29  1  0
 29 30  1  0
 30 31  2  3
 31 32  1  0
  1  2  2  0
  2  3  1  0
  3  9  2  0
  9  8  1  0
  8  7  2  0
  7  1  1  0
  4  5  2  0
  5  6  1  0
  6 10  2  0
 10 12  1  0
 12 11  2  0
 11  4  1  0
 15 16  2  0
 16 18  1  0
 18 20  2  0
 20 19  1  0
 19 17  2  0
 17 15  1  0
 21 22  2  0
 22 24  1  0
 24 25  2  0
 25 26  1  0
 26 23  2  0
 23 21  1  0
M  END

$$$$
