No_3130-gen_results/8p0m/2024-11-27-11-27-31/
     RDKit          3D

 18 18  0  0  0  0  0  0  0  0999 V2000
  -28.0162   -0.8135   28.8779 C   0  0  0  0  0  0  0  0  0  0  0  0
  -28.4690   -0.7850   29.8287 C   0  0  0  0  0  0  0  0  0  0  0  0
  -28.1960    0.3478   28.0550 C   0  0  0  0  0  0  0  0  0  0  0  0
  -27.4421    0.5100   26.7946 C   0  0  0  0  0  0  0  0  0  0  0  0
  -26.4394    0.8329   26.6142 C   0  0  0  0  0  0  0  0  0  0  0  0
  -25.2139    0.6623   26.7019 C   0  0  0  0  0  0  0  0  0  0  0  0
  -23.9079    0.8048   27.1307 C   0  0  0  0  0  0  0  0  0  0  0  0
  -23.3924    1.0662   28.3713 C   0  0  0  0  0  0  0  0  0  0  0  0
  -22.0357    0.9446   28.5934 C   0  0  0  0  0  0  0  0  0  0  0  0
  -29.5245    0.0365   30.3477 C   0  0  0  0  0  0  0  0  0  0  0  0
  -29.0033    1.3831   28.4714 C   0  0  0  0  0  0  0  0  0  0  0  0
  -29.2485    2.4970   27.6956 N   0  0  0  0  0  0  0  0  0  0  0  0
  -29.7017    1.2614   29.6700 C   0  0  0  0  0  0  0  0  0  0  0  0
  -24.2644    1.3629   29.4912 C   0  0  0  0  0  0  0  0  0  0  0  0
  -28.3252   -0.0127   25.6570 C   0  0  0  0  0  0  0  0  0  0  0  0
  -24.5925    2.5917   29.8944 C   0  0  0  0  0  0  0  0  0  0  0  0
  -25.5015    2.7499   31.0377 C   0  0  0  0  0  0  0  0  0  0  0  0
  -25.9997    1.5599   31.5948 C   0  0  0  0  0  0  0  0  0  0  0  0
  3  4  1  0
  4  5  1  0
  5  6  2  3
  6  7  1  0
  7  8  1  0
  8  9  1  0
 11 12  1  0
  8 14  1  0
  4 15  1  0
 14 16  2  3
 16 17  1  0
 17 18  2  0
  1  2  2  0
  2 10  1  0
 10 13  2  0
 13 11  1  0
 11  3  2  0
  3  1  1  0
M  END

$$$$
