No_3053-gen_results/8p0m/2024-11-27-11-27-31/
     RDKit          3D

 33 35  0  0  0  0  0  0  0  0999 V2000
  -28.0162   -0.8135   28.8779 C   0  0  0  0  0  0  0  0  0  0  0  0
  -27.0636   -0.1190   28.6079 C   0  0  0  0  0  0  0  0  0  0  0  0
  -26.8756    1.1325   28.9134 C   0  0  0  0  0  0  0  0  0  0  0  0
  -27.9014    1.8066   29.6436 C   0  0  0  0  0  0  0  0  0  0  0  0
  -28.9449    1.0388   30.0360 C   0  0  0  0  0  0  0  0  0  0  0  0
  -29.0273   -0.2890   29.7051 C   0  0  0  0  0  0  0  0  0  0  0  0
  -25.6027    1.7107   28.5373 C   0  0  0  0  0  0  0  0  0  0  0  0
  -24.8845    1.5376   27.5614 C   0  0  0  0  0  0  0  0  0  0  0  0
  -23.6019    2.1492   27.2917 C   0  0  0  0  0  0  0  0  0  0  0  0
  -22.3933    1.7966   27.3990 C   0  0  0  0  0  0  0  0  0  0  0  0
  -22.1290    0.7172   28.3131 C   0  0  0  0  0  0  0  0  0  0  0  0
  -20.8087    0.3626   28.6421 C   0  0  0  0  0  0  0  0  0  0  0  0
  -23.2016   -0.0824   28.7760 C   0  0  0  0  0  0  0  0  0  0  0  0
  -22.7180   -1.0787   29.7856 C   0  0  0  0  0  0  0  0  0  0  0  0
  -23.7277   -1.1538   30.7613 C   0  0  0  0  0  0  0  0  0  0  0  0
  -30.2006   -1.1555   30.0891 C   0  0  0  0  0  0  0  0  0  0  0  0
  -29.9633   -2.2295   30.3400 O   0  0  0  0  0  0  0  0  0  0  0  0
  -31.3473   -0.6726   30.2200 O   0  0  0  0  0  0  0  0  0  0  0  0
  -25.1219    2.8394   29.5220 C   0  0  0  0  0  0  0  0  0  0  0  0
  -20.5276   -0.7374   29.3599 N   0  0  0  0  0  0  0  0  0  0  0  0
  -21.4319   -1.1669   30.0243 C   0  0  0  0  0  0  0  0  0  0  0  0
  -24.6802   -2.0216   30.5222 O   0  0  0  0  0  0  0  0  0  0  0  0
  -23.7535   -0.5382   31.9920 N   0  0  0  0  0  0  0  0  0  0  0  0
  -24.7555   -0.6307   33.0375 C   0  0  0  0  0  0  0  0  0  0  0  0
  -25.4729    4.0275   29.1947 O   0  0  0  0  0  0  0  0  0  0  0  0
  -24.9216    2.5792   30.8086 O   0  0  0  0  0  0  0  0  0  0  0  0
  -25.7073    5.0179   30.0832 C   0  0  0  0  0  0  0  0  0  0  0  0
  -25.7749    6.3285   29.4632 C   0  0  0  0  0  0  0  0  0  0  0  0
  -25.8501    6.4467   28.0974 C   0  0  0  0  0  0  0  0  0  0  0  0
  -25.7288    7.7299   27.4487 C   0  0  0  0  0  0  0  0  0  0  0  0
  -25.5938    8.8718   28.2296 C   0  0  0  0  0  0  0  0  0  0  0  0
  -25.5288    8.7751   29.6413 C   0  0  0  0  0  0  0  0  0  0  0  0
  -25.5829    7.5561   30.2272 C   0  0  0  0  0  0  0  0  0  0  0  0
  3  7  1  0
  7  8  2  3
  8  9  1  0
  9 10  2  3
 10 11  1  0
 14 15  1  0
  6 16  1  0
 16 17  2  0
 16 18  1  0
  7 19  1  0
 15 22  2  0
 15 23  1  0
 23 24  1  0
 19 25  1  0
 19 26  2  0
 25 27  1  0
 27 28  1  0
 28 29  2  0
 29 30  1  0
 30 31  2  0
 31 32  1  0
 32 33  2  0
 33 28  1  0
  1  2  2  0
  2  3  1  0
  3  4  2  0
  4  5  1  0
  5  6  2  0
  6  1  1  0
 11 12  2  0
 12 20  1  0
 20 21  2  0
 21 14  1  0
 14 13  2  0
 13 11  1  0
M  END

$$$$
