No_3054-gen_results/8p0m/2024-11-27-11-27-31/
     RDKit          3D

 17 18  0  0  0  0  0  0  0  0999 V2000
  -28.0162   -0.8135   28.8779 C   0  0  0  0  0  0  0  0  0  0  0  0
  -27.0636   -0.1189   28.6079 C   0  0  0  0  0  0  0  0  0  0  0  0
  -25.7647   -0.3897   29.0360 C   0  0  0  0  0  0  0  0  0  0  0  0
  -24.5516    0.4058   28.7646 C   0  0  0  0  0  0  0  0  0  0  0  0
  -24.6957    1.4480   27.7988 C   0  0  0  0  0  0  0  0  0  0  0  0
  -25.9755    1.7250   27.3077 C   0  0  0  0  0  0  0  0  0  0  0  0
  -27.0718    1.0134   27.6535 C   0  0  0  0  0  0  0  0  0  0  0  0
  -27.9653   -1.6216   30.1356 C   0  0  0  0  0  0  0  0  0  0  0  0
  -26.6745   -2.1506   30.4965 C   0  0  0  0  0  0  0  0  0  0  0  0
  -25.5535   -1.4129   30.0823 C   0  0  0  0  0  0  0  0  0  0  0  0
  -23.4812    2.2323   27.4585 C   0  0  0  0  0  0  0  0  0  0  0  0
  -23.6679    3.4143   27.5828 F   0  0  0  0  0  0  0  0  0  0  0  0
  -22.4630    1.9916   28.3754 F   0  0  0  0  0  0  0  0  0  0  0  0
  -23.0317    1.9032   26.2483 F   0  0  0  0  0  0  0  0  0  0  0  0
  -28.3587    1.3144   27.0110 C   0  0  0  0  0  0  0  0  0  0  0  0
  -29.2620    1.6179   27.6235 O   0  0  0  0  0  0  0  0  0  0  0  0
  -28.3364    1.2503   25.7148 O   0  0  0  0  0  0  0  0  0  0  0  0
  5 11  1  0
 11 12  1  0
 11 13  1  0
 11 14  1  0
  7 15  1  0
 15 16  1  0
 15 17  2  0
  3  4  1  0
  4  5  2  0
  5  6  1  0
  6  7  2  0
  7  2  1  0
  1  2  2  0
  2  3  1  0
  3 10  2  0
 10  9  1  0
  9  8  2  0
  8  1  1  0
M  END

$$$$
