No_3765-gen_results/8p0m/2024-11-27-11-27-31/
     RDKit          3D

 33 35  0  0  0  0  0  0  0  0999 V2000
  -28.0162   -0.8135   28.8779 C   0  0  0  0  0  0  0  0  0  0  0  0
  -28.4690   -0.7850   29.8287 C   0  0  0  0  0  0  0  0  0  0  0  0
  -27.1356    0.2359   28.5352 C   0  0  0  0  0  0  0  0  0  0  0  0
  -26.8745    1.2825   29.3982 C   0  0  0  0  0  0  0  0  0  0  0  0
  -28.3613    0.1987   30.9244 C   0  0  0  0  0  0  0  0  0  0  0  0
  -25.9723    2.3852   29.1040 C   0  0  0  0  0  0  0  0  0  0  0  0
  -27.5118    1.2316   30.6323 C   0  0  0  0  0  0  0  0  0  0  0  0
  -25.4925    3.0751   29.8093 C   0  0  0  0  0  0  0  0  0  0  0  0
  -24.5824    4.1870   29.4674 C   0  0  0  0  0  0  0  0  0  0  0  0
  -24.5868    4.5078   28.0903 C   0  0  0  0  0  0  0  0  0  0  0  0
  -25.8733    2.8000   27.6717 C   0  0  0  0  0  0  0  0  0  0  0  0
  -25.1997    3.7959   27.2293 C   0  0  0  0  0  0  0  0  0  0  0  0
  -26.3506    0.2065   26.9738 Cl  0  0  0  0  0  0  0  0  0  0  0  0
  -29.4400   -1.9864   30.3149 C   0  0  0  0  0  0  0  0  0  0  0  0
  -29.0363   -3.1816   30.4058 O   0  0  0  0  0  0  0  0  0  0  0  0
  -30.6539   -1.8176   30.6707 O   0  0  0  0  0  0  0  0  0  0  0  0
  -31.5288   -2.4444   30.5352 C   0  0  0  0  0  0  0  0  0  0  0  0
  -32.2273   -2.5611   29.3447 C   0  0  0  0  0  0  0  0  0  0  0  0
  -32.3559   -1.3719   28.6306 C   0  0  0  0  0  0  0  0  0  0  0  0
  -32.2791   -1.3951   27.2554 C   0  0  0  0  0  0  0  0  0  0  0  0
  -31.9457   -0.2643   26.4435 C   0  0  0  0  0  0  0  0  0  0  0  0
  -31.8247    0.9898   27.1224 C   0  0  0  0  0  0  0  0  0  0  0  0
  -31.9407    1.0374   28.5160 C   0  0  0  0  0  0  0  0  0  0  0  0
  -32.0602   -0.1075   29.2026 C   0  0  0  0  0  0  0  0  0  0  0  0
  -31.7041   -3.6166   28.5187 N   0  0  0  0  0  0  0  0  0  0  0  0
  -31.7616    2.3869   29.1566 C   0  0  0  0  0  0  0  0  0  0  0  0
  -32.1496    2.5032   30.2961 O   0  0  0  0  0  0  0  0  0  0  0  0
  -31.4247    3.4532   28.4144 N   0  0  0  0  0  0  0  0  0  0  0  0
  -31.2251    4.7643   29.0370 C   0  0  0  0  0  0  0  0  0  0  0  0
  -30.5476    5.5003   28.7650 C   0  0  0  0  0  0  0  0  0  0  0  0
  -30.2024    6.7266   29.5239 C   0  0  0  0  0  0  0  0  0  0  0  0
  -29.1629    7.6804   29.1996 C   0  0  0  0  0  0  0  0  0  0  0  0
  -28.7750    8.7145   30.0192 C   0  0  0  0  0  0  0  0  0  0  0  0
  4  6  1  0
  3 13  1  0
  2 14  1  0
 14 15  2  0
 14 16  1  0
 16 17  1  0
 17 18  1  0
 18 19  1  0
 18 25  1  0
 23 26  1  0
 26 27  2  0
 26 28  1  0
 28 29  1  0
 29 30  2  3
 30 31  1  0
 31 32  2  3
 32 33  1  0
  6  8  2  0
  8  9  1  0
  9 10  2  0
 10 12  1  0
 12 11  2  0
 11  6  1  0
 19 20  2  0
 20 21  1  0
 21 22  2  0
 22 23  1  0
 23 24  2  0
 24 19  1  0
  1  2  2  0
  2  5  1  0
  5  7  2  0
  7  4  1  0
  4  3  2  0
  3  1  1  0
M  END

$$$$
