No_3837-gen_results/8p0m/2024-11-27-11-27-31/
     RDKit          3D

 26 28  0  0  0  0  0  0  0  0999 V2000
  -28.0162   -0.8135   28.8779 C   0  0  0  0  0  0  0  0  0  0  0  0
  -28.4690   -0.7850   29.8287 C   0  0  0  0  0  0  0  0  0  0  0  0
  -26.5455   -0.8762   28.8500 C   0  0  0  0  0  0  0  0  0  0  0  0
  -25.8041   -1.0324   30.0571 C   0  0  0  0  0  0  0  0  0  0  0  0
  -30.0055   -0.7457   29.8978 C   0  0  0  0  0  0  0  0  0  0  0  0
  -26.5747   -1.0565   31.2005 C   0  0  0  0  0  0  0  0  0  0  0  0
  -27.9251   -0.9738   31.1683 C   0  0  0  0  0  0  0  0  0  0  0  0
  -30.5924   -1.7178   30.1082 O   0  0  0  0  0  0  0  0  0  0  0  0
  -30.5746    0.4802   30.0226 N   0  0  0  0  0  0  0  0  0  0  0  0
  -31.9963    0.5972   30.0174 C   0  0  0  0  0  0  0  0  0  0  0  0
  -29.8147    1.6509   29.7941 C   0  0  0  0  0  0  0  0  0  0  0  0
  -29.7244    2.4142   30.9882 C   0  0  0  0  0  0  0  0  0  0  0  0
  -28.7439    3.2971   30.9995 C   0  0  0  0  0  0  0  0  0  0  0  0
  -27.9148    3.6372   29.8644 C   0  0  0  0  0  0  0  0  0  0  0  0
  -28.1112    2.8339   28.7442 C   0  0  0  0  0  0  0  0  0  0  0  0
  -29.0072    1.7855   28.7606 C   0  0  0  0  0  0  0  0  0  0  0  0
  -25.7241   -0.7816   27.5988 C   0  0  0  0  0  0  0  0  0  0  0  0
  -25.2425    0.5853   27.2583 C   0  0  0  0  0  0  0  0  0  0  0  0
  -25.4343    1.0507   26.0352 C   0  0  0  0  0  0  0  0  0  0  0  0
  -24.8721    2.3280   25.7068 C   0  0  0  0  0  0  0  0  0  0  0  0
  -24.0750    3.0547   26.6707 C   0  0  0  0  0  0  0  0  0  0  0  0
  -24.4320    1.3416   28.1623 C   0  0  0  0  0  0  0  0  0  0  0  0
  -23.9033    2.5501   27.8601 C   0  0  0  0  0  0  0  0  0  0  0  0
  -27.2273    3.1865   27.5699 C   0  0  0  0  0  0  0  0  0  0  0  0
  -27.8485    3.2121   26.3187 C   0  0  0  0  0  0  0  0  0  0  0  0
  -27.7733    4.2907   25.5802 C   0  0  0  0  0  0  0  0  0  0  0  0
  2  5  1  0
  5  8  2  0
  5  9  1  0
  9 10  1  0
  9 11  1  0
  3 17  1  0
 17 18  1  0
 15 24  1  0
 24 25  2  3
 25 26  1  0
 11 12  2  0
 12 13  1  0
 13 14  2  0
 14 15  1  0
 15 16  2  0
 16 11  1  0
 18 19  2  0
 19 20  1  0
 20 21  2  0
 21 23  1  0
 23 22  2  0
 22 18  1  0
  1  2  2  0
  2  7  1  0
  7  6  2  0
  6  4  1  0
  4  3  2  0
  3  1  1  0
M  END

$$$$
