No_3997-gen_results/8p0m/2024-11-27-11-27-31/
     RDKit          3D

 17 18  0  0  0  0  0  0  0  0999 V2000
  -28.0544   -1.0498   28.7246 N   0  0  0  0  0  0  0  0  0  0  0  0
  -26.9659   -0.4722   28.7709 C   0  0  0  0  0  0  0  0  0  0  0  0
  -26.4477    0.3414   27.9328 C   0  0  0  0  0  0  0  0  0  0  0  0
  -27.3171    0.7634   26.8203 C   0  0  0  0  0  0  0  0  0  0  0  0
  -28.5568    0.2440   26.8337 C   0  0  0  0  0  0  0  0  0  0  0  0
  -28.9457   -0.5269   27.8558 C   0  0  0  0  0  0  0  0  0  0  0  0
  -29.4332    0.6813   25.7406 C   0  0  0  0  0  0  0  0  0  0  0  0
  -30.3434    0.1174   25.5489 O   0  0  0  0  0  0  0  0  0  0  0  0
  -29.3354    1.9102   25.2425 O   0  0  0  0  0  0  0  0  0  0  0  0
  -26.0614   -0.9282   29.8083 F   0  0  0  0  0  0  0  0  0  0  0  0
  -24.9795    0.8104   27.9581 C   0  0  0  0  0  0  0  0  0  0  0  0
  -24.6384    1.7146   28.9781 C   0  0  0  0  0  0  0  0  0  0  0  0
  -23.2327    2.0813   29.0229 C   0  0  0  0  0  0  0  0  0  0  0  0
  -22.2987    1.6002   28.0943 C   0  0  0  0  0  0  0  0  0  0  0  0
  -22.7448    0.7409   27.1452 C   0  0  0  0  0  0  0  0  0  0  0  0
  -24.0365    0.3875   27.0656 C   0  0  0  0  0  0  0  0  0  0  0  0
  -21.0626    2.0171   28.1702 O   0  0  0  0  0  0  0  0  0  0  0  0
  5  7  1  0
  7  8  1  0
  7  9  2  0
  2 10  1  0
  3 11  1  0
 14 17  1  0
 11 12  2  0
 12 13  1  0
 13 14  2  0
 14 15  1  0
 15 16  2  0
 16 11  1  0
  1  2  2  0
  2  3  1  0
  3  4  2  0
  4  5  1  0
  5  6  2  0
  6  1  1  0
M  END

$$$$
