No_3910-gen_results/8p0m/2024-11-27-11-27-31/
     RDKit          3D

 23 26  0  0  0  0  0  0  0  0999 V2000
  -28.0162   -0.8135   28.8779 C   0  0  0  0  0  0  0  0  0  0  0  0
  -27.0636   -0.1189   28.6079 C   0  0  0  0  0  0  0  0  0  0  0  0
  -26.9287    1.1713   29.0083 C   0  0  0  0  0  0  0  0  0  0  0  0
  -27.9560    1.7411   29.7840 C   0  0  0  0  0  0  0  0  0  0  0  0
  -29.0569   -0.3271   29.7466 C   0  0  0  0  0  0  0  0  0  0  0  0
  -28.9828    0.9722   30.1516 C   0  0  0  0  0  0  0  0  0  0  0  0
  -25.7352   -0.7297   27.6631 Cl  0  0  0  0  0  0  0  0  0  0  0  0
  -30.0810    1.5109   31.0108 C   0  0  0  0  0  0  0  0  0  0  0  0
  -31.1301    1.7095   30.8945 C   0  0  0  0  0  0  0  0  0  0  0  0
  -32.0707    2.2777   31.8475 C   0  0  0  0  0  0  0  0  0  0  0  0
  -29.7193    1.6841   32.4521 C   0  0  0  0  0  0  0  0  0  0  0  0
  -30.4228    2.1765   33.4270 C   0  0  0  0  0  0  0  0  0  0  0  0
  -31.6986    2.4929   33.0938 C   0  0  0  0  0  0  0  0  0  0  0  0
  -32.6355    3.0522   34.1057 C   0  0  0  0  0  0  0  0  0  0  0  0
  -32.1308    3.5379   35.1992 C   0  0  0  0  0  0  0  0  0  0  0  0
  -30.7999    3.1400   35.5762 C   0  0  0  0  0  0  0  0  0  0  0  0
  -29.8900    2.5877   34.7127 C   0  0  0  0  0  0  0  0  0  0  0  0
  -33.9716    3.3486   33.7092 C   0  0  0  0  0  0  0  0  0  0  0  0
  -34.2711    4.5308   33.1440 C   0  0  0  0  0  0  0  0  0  0  0  0
  -35.5699    4.8125   32.6904 C   0  0  0  0  0  0  0  0  0  0  0  0
  -34.9066    2.3321   33.8514 C   0  0  0  0  0  0  0  0  0  0  0  0
  -36.2414    2.5962   33.4477 C   0  0  0  0  0  0  0  0  0  0  0  0
  -36.5321    3.8644   32.9183 C   0  0  0  0  0  0  0  0  0  0  0  0
  2  7  1  0
  6  8  1  0
 14 18  1  0
 13 14  1  0
 14 15  2  0
 15 16  1  0
 16 17  2  0
 17 12  1  0
  8  9  2  0
  9 10  1  0
 10 13  2  0
 13 12  1  0
 12 11  2  0
 11  8  1  0
  1  2  2  0
  2  3  1  0
  3  4  2  0
  4  6  1  0
  6  5  2  0
  5  1  1  0
 18 19  2  0
 19 20  1  0
 20 23  2  0
 23 22  1  0
 22 21  2  0
 21 18  1  0
M  END

$$$$
