No_3491-gen_results/8p0m/2024-11-27-11-27-31/
     RDKit          3D

 16 17  0  0  0  0  0  0  0  0999 V2000
  -28.0162   -0.8135   28.8779 C   0  0  0  0  0  0  0  0  0  0  0  0
  -27.0636   -0.1189   28.6079 C   0  0  0  0  0  0  0  0  0  0  0  0
  -26.9287    1.1713   29.0083 C   0  0  0  0  0  0  0  0  0  0  0  0
  -27.9560    1.7411   29.7840 C   0  0  0  0  0  0  0  0  0  0  0  0
  -29.0569   -0.3271   29.7466 C   0  0  0  0  0  0  0  0  0  0  0  0
  -28.9828    0.9722   30.1516 C   0  0  0  0  0  0  0  0  0  0  0  0
  -25.8815   -0.6260   27.7945 C   0  0  0  0  0  0  0  0  0  0  0  0
  -24.6972   -1.0572   28.6241 C   0  0  0  0  0  0  0  0  0  0  0  0
  -24.1843   -0.3700   29.5411 C   0  0  0  0  0  0  0  0  0  0  0  0
  -23.0754   -0.8331   30.2837 C   0  0  0  0  0  0  0  0  0  0  0  0
  -22.4816   -0.0674   31.3016 C   0  0  0  0  0  0  0  0  0  0  0  0
  -23.3705    0.9831   31.6132 C   0  0  0  0  0  0  0  0  0  0  0  0
  -24.5643    0.8573   30.3156 C   0  0  0  0  0  0  0  0  0  0  0  0
  -27.8461    3.1843   30.1833 C   0  0  0  0  0  0  0  0  0  0  0  0
  -27.0217    3.9410   29.5097 C   0  0  0  0  0  0  0  0  0  0  0  0
  -26.0218    3.3134   28.6280 C   0  0  0  0  0  0  0  0  0  0  0  0
  2  7  1  0
  7  8  1  0
  8  9  1  0
  9 10  2  0
 10 11  1  0
 11 12  2  0
  9 13  1  0
 12 13  1  0
  4 14  1  0
 14 15  2  3
 15 16  1  0
  1  2  2  0
  2  3  1  0
  3  4  2  0
  4  6  1  0
  6  5  2  0
  5  1  1  0
M  END

$$$$
