No_3104-gen_results/8p0m/2024-11-27-11-27-31/
     RDKit          3D

 14 15  0  0  0  0  0  0  0  0999 V2000
  -28.0162   -0.8135   28.8779 C   0  0  0  0  0  0  0  0  0  0  0  0
  -28.4690   -0.7850   29.8287 C   0  0  0  0  0  0  0  0  0  0  0  0
  -26.5042   -0.7777   28.8766 C   0  0  0  0  0  0  0  0  0  0  0  0
  -25.8103   -0.8531   30.1028 C   0  0  0  0  0  0  0  0  0  0  0  0
  -27.9906   -0.8916   31.2257 C   0  0  0  0  0  0  0  0  0  0  0  0
  -26.6042   -0.8676   31.2652 C   0  0  0  0  0  0  0  0  0  0  0  0
  -24.3894   -0.8049   30.1638 C   0  0  0  0  0  0  0  0  0  0  0  0
  -23.7660   -0.9500   31.0679 C   0  0  0  0  0  0  0  0  0  0  0  0
  -24.4866   -1.0287   32.3849 C   0  0  0  0  0  0  0  0  0  0  0  0
  -25.8375   -0.9259   32.4678 C   0  0  0  0  0  0  0  0  0  0  0  0
  -25.7169   -0.7014   27.6188 C   0  0  0  0  0  0  0  0  0  0  0  0
  -24.4556   -0.8548   27.7082 F   0  0  0  0  0  0  0  0  0  0  0  0
  -26.2015   -1.5263   26.6176 F   0  0  0  0  0  0  0  0  0  0  0  0
  -26.1278    0.5172   26.9427 F   0  0  0  0  0  0  0  0  0  0  0  0
  3 11  1  0
 11 12  1  0
 11 13  1  0
 11 14  1  0
  6 10  1  0
 10  9  2  0
  9  8  1  0
  8  7  2  0
  7  4  1  0
  1  2  2  0
  2  5  1  0
  5  6  2  0
  6  4  1  0
  4  3  2  0
  3  1  1  0
M  END

$$$$
