No_3661-gen_results/8p0m/2024-11-27-11-27-31/
     RDKit          3D

 20 21  0  0  0  0  0  0  0  0999 V2000
  -28.0162   -0.8135   28.8779 C   0  0  0  0  0  0  0  0  0  0  0  0
  -28.4690   -0.7850   29.8287 C   0  0  0  0  0  0  0  0  0  0  0  0
  -26.5455   -0.8762   28.8500 C   0  0  0  0  0  0  0  0  0  0  0  0
  -25.8041   -1.0324   30.0571 C   0  0  0  0  0  0  0  0  0  0  0  0
  -26.5373   -1.0386   31.2171 C   0  0  0  0  0  0  0  0  0  0  0  0
  -27.8843   -0.9532   31.1862 C   0  0  0  0  0  0  0  0  0  0  0  0
  -24.3655   -1.1134   30.0483 C   0  0  0  0  0  0  0  0  0  0  0  0
  -23.6925    0.1188   29.9185 C   0  0  0  0  0  0  0  0  0  0  0  0
  -22.3936    0.1820   29.3480 C   0  0  0  0  0  0  0  0  0  0  0  0
  -21.7660   -1.0836   29.1002 C   0  0  0  0  0  0  0  0  0  0  0  0
  -23.7787   -2.0456   28.9811 C   0  0  0  0  0  0  0  0  0  0  0  0
  -22.4132   -2.1567   28.9040 C   0  0  0  0  0  0  0  0  0  0  0  0
  -23.9101   -1.7264   31.4605 C   0  0  0  0  0  0  0  0  0  0  0  0
  -25.4693   -1.9845   30.0815 Cl  0  0  0  0  0  0  0  0  0  0  0  0
  -25.8591   -0.4839   27.5900 C   0  0  0  0  0  0  0  0  0  0  0  0
  -24.4270   -2.7422   28.2513 O   0  0  0  0  0  0  0  0  0  0  0  0
  -26.2451   -0.3213   27.9498 O   0  0  0  0  0  0  0  0  0  0  0  0
  -27.2261    0.8845   27.6528 C   0  0  0  0  0  0  0  0  0  0  0  0
  -26.5413    2.0477   27.8522 C   0  0  0  0  0  0  0  0  0  0  0  0
  -28.2541    0.8382   26.8851 C   0  0  0  0  0  0  0  0  0  0  0  0
  1  2  2  0
  1  3  1  0
  3  4  1  0
  4  5  1  0
  2  6  1  0
  5  6  2  0
  4  7  1  0
  7  8  1  0
  9 10  1  0
  7 11  1  0
  7 13  1  0
  4 14  1  0
  3 15  1  0
 11 16  1  0
 15 17  1  0
 17 18  1  0
 18 19  1  0
 18 20  1  0
  8  9  1  0
 10 12  1  0
 12 11  1  0
M  END

$$$$
