No_3716-gen_results/8p0m/2024-11-27-11-27-31/
     RDKit          3D

 13 14  0  0  0  0  0  0  0  0999 V2000
  -28.0162   -0.8135   28.8779 C   0  0  0  0  0  0  0  0  0  0  0  0
  -27.0636   -0.1189   28.6079 C   0  0  0  0  0  0  0  0  0  0  0  0
  -25.7923   -0.4302   29.0761 C   0  0  0  0  0  0  0  0  0  0  0  0
  -25.5756   -1.5654   29.9363 C   0  0  0  0  0  0  0  0  0  0  0  0
  -26.7354   -2.3004   30.2173 C   0  0  0  0  0  0  0  0  0  0  0  0
  -27.9184   -1.9537   29.7629 C   0  0  0  0  0  0  0  0  0  0  0  0
  -27.3243    1.0850   27.8190 C   0  0  0  0  0  0  0  0  0  0  0  0
  -27.6406    1.1118   26.7083 N   0  0  0  0  0  0  0  0  0  0  0  0
  -27.9924   -0.0062   26.0870 C   0  0  0  0  0  0  0  0  0  0  0  0
  -28.3769    0.1683   24.6428 C   0  0  0  0  0  0  0  0  0  0  0  0
  -27.9291    2.1819   25.7027 C   0  0  0  0  0  0  0  0  0  0  0  0
  -28.3361    1.6110   24.5161 C   0  0  0  0  0  0  0  0  0  0  0  0
  -26.8730    2.2622   28.3561 O   0  0  0  0  0  0  0  0  0  0  0  0
  2  7  1  0
  7  8  1  0
  8  9  1  0
  9 10  2  0
  8 11  1  0
 10 12  1  0
 11 12  2  0
  7 13  2  0
  1  2  2  0
  2  3  1  0
  3  4  2  0
  4  5  1  0
  5  6  2  0
  6  1  1  0
M  END

$$$$
