No_390-gen_results/8p0m/2024-11-27-11-27-31/
     RDKit          3D

 14 15  0  0  0  0  0  0  0  0999 V2000
  -28.1229   -1.3353   28.4874 O   0  0  0  0  0  0  0  0  0  0  0  0
  -27.4806   -0.4044   28.7094 C   0  0  0  0  0  0  0  0  0  0  0  0
  -27.1904    0.2460   29.5268 C   0  0  0  0  0  0  0  0  0  0  0  0
  -26.6871   -0.0001   27.4423 N   0  0  0  0  0  0  0  0  0  0  0  0
  -27.6511    0.1259   30.8799 C   0  0  0  0  0  0  0  0  0  0  0  0
  -26.8881   -0.4289   26.2603 C   0  0  0  0  0  0  0  0  0  0  0  0
  -26.1307    1.4289   29.5753 C   0  0  0  0  0  0  0  0  0  0  0  0
  -25.7966    2.1228   30.6259 C   0  0  0  0  0  0  0  0  0  0  0  0
  -27.3474    0.8949   32.0677 C   0  0  0  0  0  0  0  0  0  0  0  0
  -26.4021    1.9011   31.9237 C   0  0  0  0  0  0  0  0  0  0  0  0
  -26.0215    0.4085   25.3136 C   0  0  0  0  0  0  0  0  0  0  0  0
  -24.9012    1.0729   25.7406 C   0  0  0  0  0  0  0  0  0  0  0  0
  -24.6896    1.2635   27.0312 C   0  0  0  0  0  0  0  0  0  0  0  0
  -25.5711    0.7666   27.9376 C   0  0  0  0  0  0  0  0  0  0  0  0
  1  2  2  0
  2  3  1  0
  2  4  1  0
  4  6  1  0
 11 12  1  0
  4 14  1  0
 13 14  1  0
  6 11  1  0
 12 13  1  0
  3  5  2  0
  5  9  1  0
  9 10  2  0
 10  8  1  0
  8  7  2  0
  7  3  1  0
M  END

$$$$
