No_3558-gen_results/8p0m/2024-11-27-11-27-31/
     RDKit          3D

 20 21  0  0  0  0  0  0  0  0999 V2000
  -28.0162   -0.8135   28.8779 C   0  0  0  0  0  0  0  0  0  0  0  0
  -27.0636   -0.1189   28.6079 C   0  0  0  0  0  0  0  0  0  0  0  0
  -25.7923   -0.4302   29.0761 C   0  0  0  0  0  0  0  0  0  0  0  0
  -25.5756   -1.5654   29.9363 C   0  0  0  0  0  0  0  0  0  0  0  0
  -26.7354   -2.3004   30.2173 C   0  0  0  0  0  0  0  0  0  0  0  0
  -27.9184   -1.9537   29.7629 C   0  0  0  0  0  0  0  0  0  0  0  0
  -29.0001   -2.7012   30.1151 O   0  0  0  0  0  0  0  0  0  0  0  0
  -24.5290    0.3490   28.7998 C   0  0  0  0  0  0  0  0  0  0  0  0
  -23.3442    0.0060   29.1658 C   0  0  0  0  0  0  0  0  0  0  0  0
  -23.0651   -1.1244   29.9189 C   0  0  0  0  0  0  0  0  0  0  0  0
  -24.2689   -1.9593   30.3431 C   0  0  0  0  0  0  0  0  0  0  0  0
  -22.1386    0.7763   28.7634 C   0  0  0  0  0  0  0  0  0  0  0  0
  -21.8016    1.0893   27.7607 N   0  0  0  0  0  0  0  0  0  0  0  0
  -22.3072    2.2344   27.1617 C   0  0  0  0  0  0  0  0  0  0  0  0
  -23.5668    2.1003   26.5084 C   0  0  0  0  0  0  0  0  0  0  0  0
  -24.3761    3.2305   26.4525 C   0  0  0  0  0  0  0  0  0  0  0  0
  -25.3725    3.7320   26.9380 C   0  0  0  0  0  0  0  0  0  0  0  0
  -26.2607    3.0304   27.7315 C   0  0  0  0  0  0  0  0  0  0  0  0
  -27.3654    3.6567   28.4224 C   0  0  0  0  0  0  0  0  0  0  0  0
  -28.1543    3.0274   29.2298 C   0  0  0  0  0  0  0  0  0  0  0  0
  6  7  1  0
  9 12  1  0
 12 13  1  0
 13 14  1  0
 14 15  1  0
 15 16  2  3
 16 17  1  0
 17 18  2  3
 18 19  1  0
 19 20  2  0
  1  2  2  0
  2  3  1  0
  4  5  1  0
  5  6  2  0
  6  1  1  0
  3  4  2  0
  4 11  1  0
 11 10  2  0
 10  9  1  0
  9  8  2  0
  8  3  1  0
M  END

$$$$
