No_3193-gen_results/8p0m/2024-11-27-11-27-31/
     RDKit          3D

 19 21  0  0  0  0  0  0  0  0999 V2000
  -28.0162   -0.8135   28.8779 C   0  0  0  0  0  0  0  0  0  0  0  0
  -28.4690   -0.7850   29.8287 C   0  0  0  0  0  0  0  0  0  0  0  0
  -27.0871    0.2903   28.6377 C   0  0  0  0  0  0  0  0  0  0  0  0
  -26.7676    1.0274   29.4716 C   0  0  0  0  0  0  0  0  0  0  0  0
  -28.2764    0.0268   31.0145 C   0  0  0  0  0  0  0  0  0  0  0  0
  -27.3287    1.0538   30.7535 C   0  0  0  0  0  0  0  0  0  0  0  0
  -26.3859    0.3010   27.2661 C   0  0  0  0  0  0  0  0  0  0  0  0
  -26.0047    1.5465   26.8605 C   0  0  0  0  0  0  0  0  0  0  0  0
  -25.4538    2.4490   27.8241 C   0  0  0  0  0  0  0  0  0  0  0  0
  -24.7564    3.6637   27.5235 C   0  0  0  0  0  0  0  0  0  0  0  0
  -25.9124    2.2654   29.2474 C   0  0  0  0  0  0  0  0  0  0  0  0
  -24.5995    4.5637   28.2893 O   0  0  0  0  0  0  0  0  0  0  0  0
  -23.9995    3.5201   26.4232 O   0  0  0  0  0  0  0  0  0  0  0  0
  -29.4779   -2.0261   30.2776 C   0  0  0  0  0  0  0  0  0  0  0  0
  -29.0900   -3.2487   30.4599 N   0  0  0  0  0  0  0  0  0  0  0  0
  -30.9034   -1.8075   30.4297 C   0  0  0  0  0  0  0  0  0  0  0  0
  -29.8843   -4.3114   30.5220 C   0  0  0  0  0  0  0  0  0  0  0  0
  -31.7518   -2.8283   30.5662 C   0  0  0  0  0  0  0  0  0  0  0  0
  -31.2130   -4.1503   30.6726 C   0  0  0  0  0  0  0  0  0  0  0  0
  9 10  1  0
 10 12  1  0
 10 13  2  0
  2 14  1  0
 14 15  2  0
 15 17  1  0
 17 19  2  0
 19 18  1  0
 18 16  2  0
 16 14  1  0
  4 11  2  0
 11  9  1  0
  9  8  2  0
  8  7  1  0
  7  3  2  0
  1  2  2  0
  2  5  1  0
  5  6  2  0
  6  4  1  0
  4  3  1  0
  3  1  1  0
M  END

$$$$
