No_3093-gen_results/8p0m/2024-11-27-11-27-31/
     RDKit          3D

 21 23  0  0  0  0  0  0  0  0999 V2000
  -28.0162   -0.8135   28.8779 C   0  0  0  0  0  0  0  0  0  0  0  0
  -27.0636   -0.1190   28.6079 C   0  0  0  0  0  0  0  0  0  0  0  0
  -26.8756    1.1325   28.9134 C   0  0  0  0  0  0  0  0  0  0  0  0
  -27.9014    1.8066   29.6436 C   0  0  0  0  0  0  0  0  0  0  0  0
  -29.0458   -0.2316   29.7181 C   0  0  0  0  0  0  0  0  0  0  0  0
  -28.9402    1.0517   30.0597 C   0  0  0  0  0  0  0  0  0  0  0  0
  -25.8732   -0.7125   27.8045 C   0  0  0  0  0  0  0  0  0  0  0  0
  -24.7599   -1.1987   28.6570 C   0  0  0  0  0  0  0  0  0  0  0  0
  -23.6191   -0.4133   28.9109 C   0  0  0  0  0  0  0  0  0  0  0  0
  -22.5744   -0.9896   29.6750 C   0  0  0  0  0  0  0  0  0  0  0  0
  -24.9213   -2.4500   29.3091 C   0  0  0  0  0  0  0  0  0  0  0  0
  -26.0629   -3.2788   29.1384 C   0  0  0  0  0  0  0  0  0  0  0  0
  -22.8307   -2.1789   30.3581 C   0  0  0  0  0  0  0  0  0  0  0  0
  -23.8872   -2.8855   30.1011 C   0  0  0  0  0  0  0  0  0  0  0  0
  -26.9124   -3.3779   30.4334 C   0  0  0  0  0  0  0  0  0  0  0  0
  -27.8950   -4.4072   30.4191 C   0  0  0  0  0  0  0  0  0  0  0  0
  -28.9687   -4.3220   31.3520 C   0  0  0  0  0  0  0  0  0  0  0  0
  -29.2158   -3.1390   32.0524 C   0  0  0  0  0  0  0  0  0  0  0  0
  -28.2263   -2.0872   31.9579 C   0  0  0  0  0  0  0  0  0  0  0  0
  -27.1852   -2.1126   31.0618 C   0  0  0  0  0  0  0  0  0  0  0  0
  -25.7993   -0.6461   26.5899 O   0  0  0  0  0  0  0  0  0  0  0  0
  2  7  1  0
  7  8  1  0
 11 12  1  0
 12 15  1  0
  7 21  2  0
 15 16  2  0
 16 17  1  0
 17 18  2  0
 18 19  1  0
 19 20  2  0
 20 15  1  0
  8  9  2  0
  9 10  1  0
 10 13  2  0
 13 14  1  0
 14 11  2  0
 11  8  1  0
  1  2  2  0
  2  3  1  0
  3  4  2  0
  4  6  1  0
  6  5  2  0
  5  1  1  0
M  END

$$$$
