No_3550-gen_results/8p0m/2024-11-27-11-27-31/
     RDKit          3D

 14 15  0  0  0  0  0  0  0  0999 V2000
  -28.1229   -1.3353   28.4874 O   0  0  0  0  0  0  0  0  0  0  0  0
  -27.0637   -0.8242   28.8687 C   0  0  0  0  0  0  0  0  0  0  0  0
  -26.9592    0.0926   29.7582 C   0  0  0  0  0  0  0  0  0  0  0  0
  -25.8012   -1.3566   28.3971 N   0  0  0  0  0  0  0  0  0  0  0  0
  -25.7368    0.7239   30.2099 C   0  0  0  0  0  0  0  0  0  0  0  0
  -24.5680   -0.8667   28.7917 C   0  0  0  0  0  0  0  0  0  0  0  0
  -24.4971    0.1706   29.6778 C   0  0  0  0  0  0  0  0  0  0  0  0
  -23.2117    0.7215   30.0321 C   0  0  0  0  0  0  0  0  0  0  0  0
  -22.1488    0.0928   29.6770 O   0  0  0  0  0  0  0  0  0  0  0  0
  -23.1285    1.7619   30.8227 O   0  0  0  0  0  0  0  0  0  0  0  0
  -28.2044    0.6542   30.3533 C   0  0  0  0  0  0  0  0  0  0  0  0
  -28.2191    1.5261   31.3207 C   0  0  0  0  0  0  0  0  0  0  0  0
  -27.3429    1.9450   31.8930 C   0  0  0  0  0  0  0  0  0  0  0  0
  -25.8396    1.6664   31.3905 C   0  0  0  0  0  0  0  0  0  0  0  0
  1  2  2  0
  2  3  1  0
  2  4  1  0
  4  6  1  0
  5  7  1  0
  6  7  1  0
  7  8  1  0
  8  9  2  0
  8 10  1  0
  3 11  2  0
 11 12  1  0
 12 13  2  0
 13 14  1  0
 14  5  2  0
  5  3  1  0
M  END

$$$$
