No_3609-gen_results/8p0m/2024-11-27-11-27-31/
     RDKit          3D

 20 21  0  0  0  0  0  0  0  0999 V2000
  -28.0162   -0.8135   28.8779 C   0  0  0  0  0  0  0  0  0  0  0  0
  -28.4690   -0.7850   29.8287 C   0  0  0  0  0  0  0  0  0  0  0  0
  -28.1960    0.3478   28.0550 C   0  0  0  0  0  0  0  0  0  0  0  0
  -29.0191    1.3501   28.3782 C   0  0  0  0  0  0  0  0  0  0  0  0
  -29.4107    0.1803   30.3782 C   0  0  0  0  0  0  0  0  0  0  0  0
  -29.6059    1.2495   29.6193 C   0  0  0  0  0  0  0  0  0  0  0  0
  -27.4597    0.3802   26.7091 C   0  0  0  0  0  0  0  0  0  0  0  0
  -26.1039    0.2914   26.7009 N   0  0  0  0  0  0  0  0  0  0  0  0
  -25.2777    1.1601   27.3159 C   0  0  0  0  0  0  0  0  0  0  0  0
  -23.9021    0.7964   27.5503 C   0  0  0  0  0  0  0  0  0  0  0  0
  -22.9073    1.7492   27.5346 C   0  0  0  0  0  0  0  0  0  0  0  0
  -25.6190    2.4963   27.5279 C   0  0  0  0  0  0  0  0  0  0  0  0
  -24.6328    3.4939   27.7895 C   0  0  0  0  0  0  0  0  0  0  0  0
  -21.5269    1.4137   27.8065 C   0  0  0  0  0  0  0  0  0  0  0  0
  -23.2946    3.1726   27.7475 C   0  0  0  0  0  0  0  0  0  0  0  0
  -28.0750    0.5537   25.6923 O   0  0  0  0  0  0  0  0  0  0  0  0
  -25.0086    4.9156   27.8917 C   0  0  0  0  0  0  0  0  0  0  0  0
  -25.0078    5.6712   26.9379 O   0  0  0  0  0  0  0  0  0  0  0  0
  -25.3891    5.3653   29.0663 O   0  0  0  0  0  0  0  0  0  0  0  0
  -20.6435    0.8804   28.5506 N   0  0  0  0  0  0  0  0  0  0  0  0
  3  7  1  0
  7  8  1  0
  8  9  1  0
 11 14  1  0
  7 16  2  0
 13 17  1  0
 17 18  2  0
 17 19  1  0
 14 20  3  0
  1  2  2  0
  2  5  1  0
  5  6  2  0
  6  4  1  0
  4  3  2  0
  3  1  1  0
  9 10  2  0
 10 11  1  0
 11 15  2  0
 15 13  1  0
 13 12  2  0
 12  9  1  0
M  END

$$$$
