No_3384-gen_results/8p0m/2024-11-27-11-27-31/
     RDKit          3D

 14 16  0  0  0  0  0  0  0  0999 V2000
  -28.0162   -0.8135   28.8779 C   0  0  0  0  0  0  0  0  0  0  0  0
  -28.4690   -0.7850   29.8287 C   0  0  0  0  0  0  0  0  0  0  0  0
  -28.1960    0.3478   28.0550 C   0  0  0  0  0  0  0  0  0  0  0  0
  -27.4421    0.5100   26.7946 C   0  0  0  0  0  0  0  0  0  0  0  0
  -26.1689   -0.0794   26.6787 C   0  0  0  0  0  0  0  0  0  0  0  0
  -25.7312   -0.9607   27.6875 C   0  0  0  0  0  0  0  0  0  0  0  0
  -26.5043   -1.2222   28.7582 C   0  0  0  0  0  0  0  0  0  0  0  0
  -29.6164   -0.3573   30.1420 N   0  0  0  0  0  0  0  0  0  0  0  0
  -29.4077    0.8667   28.3216 C   0  0  0  0  0  0  0  0  0  0  0  0
  -30.1518    0.5822   29.3404 C   0  0  0  0  0  0  0  0  0  0  0  0
  -25.8820   -2.2767   29.6727 C   0  0  0  0  0  0  0  0  0  0  0  0
  -24.6482   -2.7786   29.4096 C   0  0  0  0  0  0  0  0  0  0  0  0
  -23.6369   -1.9714   28.9100 C   0  0  0  0  0  0  0  0  0  0  0  0
  -24.1562   -1.0642   27.8449 C   0  0  0  0  0  0  0  0  0  0  0  0
  3  4  1  0
  4  5  1  0
  5  6  1  0
  1  7  1  0
  1  2  2  0
  2  8  1  0
  8 10  2  0
 10  9  1  0
  9  3  2  0
  3  1  1  0
  6  7  2  0
  7 11  1  0
 11 12  2  0
 12 13  1  0
 13 14  2  0
 14  6  1  0
M  END

$$$$
