No_3800-gen_results/8p0m/2024-11-27-11-27-31/
     RDKit          3D

 20 22  0  0  0  0  0  0  0  0999 V2000
  -28.0162   -0.8135   28.8779 C   0  0  0  0  0  0  0  0  0  0  0  0
  -27.0636   -0.1190   28.6079 C   0  0  0  0  0  0  0  0  0  0  0  0
  -26.8756    1.1325   28.9134 C   0  0  0  0  0  0  0  0  0  0  0  0
  -25.6883    1.9515   28.5672 C   0  0  0  0  0  0  0  0  0  0  0  0
  -24.6394    1.2834   27.8753 C   0  0  0  0  0  0  0  0  0  0  0  0
  -24.8068   -0.0513   27.6040 C   0  0  0  0  0  0  0  0  0  0  0  0
  -25.9019   -0.7670   27.9511 C   0  0  0  0  0  0  0  0  0  0  0  0
  -28.6455   -0.5282   30.2428 C   0  0  0  0  0  0  0  0  0  0  0  0
  -28.9122    0.7961   30.4353 C   0  0  0  0  0  0  0  0  0  0  0  0
  -27.6776    1.5897   30.1476 N   0  0  0  0  0  0  0  0  0  0  0  0
  -27.4192    2.8716   30.7473 C   0  0  0  0  0  0  0  0  0  0  0  0
  -23.4640    1.9991   27.3909 C   0  0  0  0  0  0  0  0  0  0  0  0
  -22.3224    1.7244   27.7933 O   0  0  0  0  0  0  0  0  0  0  0  0
  -23.5916    2.8027   26.3248 O   0  0  0  0  0  0  0  0  0  0  0  0
  -28.2323    3.2359   31.7566 C   0  0  0  0  0  0  0  0  0  0  0  0
  -28.6201    4.1877   31.9213 C   0  0  0  0  0  0  0  0  0  0  0  0
  -28.7331    5.0637   31.4461 C   0  0  0  0  0  0  0  0  0  0  0  0
  -27.6934    5.1955   30.3404 C   0  0  0  0  0  0  0  0  0  0  0  0
  -27.6639    3.9588   29.6317 C   0  0  0  0  0  0  0  0  0  0  0  0
  -27.9788    6.3523   29.3490 C   0  0  0  0  0  0  0  0  0  0  0  0
  2  3  1  0
  3  4  1  0
  4  5  1  0
  5  6  1  0
  2  7  1  0
  6  7  1  0
  1  8  1  0
  8  9  1  0
  3 10  1  0
  9 10  1  0
 10 11  1  0
  5 12  1  0
 12 13  2  0
 12 14  1  0
 18 20  1  0
  2  1  1  0
 11 15  2  0
 15 16  1  0
 16 17  2  0
 17 18  1  0
 18 19  2  0
 19 11  1  0
M  END

$$$$
