No_3029-gen_results/8p0m/2024-11-27-11-27-31/
     RDKit          3D

 28 30  0  0  0  0  0  0  0  0999 V2000
  -28.0162   -0.8135   28.8779 C   0  0  0  0  0  0  0  0  0  0  0  0
  -27.0636   -0.1190   28.6079 C   0  0  0  0  0  0  0  0  0  0  0  0
  -26.9716    0.7139   27.5060 C   0  0  0  0  0  0  0  0  0  0  0  0
  -28.1053    0.7744   26.6421 C   0  0  0  0  0  0  0  0  0  0  0  0
  -29.2041    0.1179   27.0477 C   0  0  0  0  0  0  0  0  0  0  0  0
  -29.2127   -0.6088   28.1281 C   0  0  0  0  0  0  0  0  0  0  0  0
  -25.6104    1.3028   27.2626 C   0  0  0  0  0  0  0  0  0  0  0  0
  -24.5790    0.9447   27.8782 C   0  0  0  0  0  0  0  0  0  0  0  0
  -24.6716    0.1001   29.0348 C   0  0  0  0  0  0  0  0  0  0  0  0
  -25.7724   -0.4403   29.3628 C   0  0  0  0  0  0  0  0  0  0  0  0
  -23.2449    1.6464   27.6327 C   0  0  0  0  0  0  0  0  0  0  0  0
  -22.3275    1.7046   28.5758 N   0  0  0  0  0  0  0  0  0  0  0  0
  -22.8679    2.0145   26.4356 O   0  0  0  0  0  0  0  0  0  0  0  0
  -30.4200    0.3098   26.1979 C   0  0  0  0  0  0  0  0  0  0  0  0
  -31.4531    0.0835   26.5209 O   0  0  0  0  0  0  0  0  0  0  0  0
  -30.2229    1.0176   25.0330 N   0  0  0  0  0  0  0  0  0  0  0  0
  -31.3191    1.2452   24.0724 C   0  0  0  0  0  0  0  0  0  0  0  0
  -28.1803   -1.5926   29.9504 O   0  0  0  0  0  0  0  0  0  0  0  0
  -27.7744   -1.5440   30.9801 C   0  0  0  0  0  0  0  0  0  0  0  0
  -26.3399   -1.2731   31.2715 C   0  0  0  0  0  0  0  0  0  0  0  0
  -25.6197   -1.0011   30.6473 C   0  0  0  0  0  0  0  0  0  0  0  0
  -32.0788    0.4958   23.8182 C   0  0  0  0  0  0  0  0  0  0  0  0
  -31.9606   -0.8146   24.0419 C   0  0  0  0  0  0  0  0  0  0  0  0
  -31.8743   -1.4139   25.1894 C   0  0  0  0  0  0  0  0  0  0  0  0
  -31.5017   -1.1353   26.3883 C   0  0  0  0  0  0  0  0  0  0  0  0
  -31.6232   -1.9576   27.3460 O   0  0  0  0  0  0  0  0  0  0  0  0
  -31.2451   -2.0139   27.0049 C   0  0  0  0  0  0  0  0  0  0  0  0
  -32.4645   -0.8591   26.5528 O   0  0  0  0  0  0  0  0  0  0  0  0
  8 11  1  0
 11 12  1  0
 11 13  2  0
  5 14  1  0
 14 15  2  0
 14 16  1  0
 16 17  1  0
  1 18  1  0
 18 19  1  0
 19 20  2  0
 10 21  1  0
 20 21  1  0
 17 22  2  3
 22 23  1  0
 23 24  2  3
 24 25  1  0
 25 26  1  0
 26 27  1  0
 25 28  1  0
  1  2  2  0
  3  4  2  0
  4  5  1  0
  5  6  2  0
  6  1  1  0
  2  3  1  0
  3  7  1  0
  7  8  2  0
  8  9  1  0
  9 10  2  0
 10  2  1  0
M  END

$$$$
