No_3407-gen_results/8p0m/2024-11-27-11-27-31/
     RDKit          3D

 35 37  0  0  0  0  0  0  0  0999 V2000
  -28.0162   -0.8135   28.8779 C   0  0  0  0  0  0  0  0  0  0  0  0
  -27.0636   -0.1190   28.6079 C   0  0  0  0  0  0  0  0  0  0  0  0
  -27.0010    0.6913   27.4910 C   0  0  0  0  0  0  0  0  0  0  0  0
  -25.8548    1.4825   27.0830 C   0  0  0  0  0  0  0  0  0  0  0  0
  -24.6901    1.4526   27.8807 C   0  0  0  0  0  0  0  0  0  0  0  0
  -24.7379    0.6010   29.0416 C   0  0  0  0  0  0  0  0  0  0  0  0
  -25.8234   -0.1688   29.3887 C   0  0  0  0  0  0  0  0  0  0  0  0
  -28.7350   -0.4637   30.1419 C   0  0  0  0  0  0  0  0  0  0  0  0
  -28.8498    0.5692   30.5170 F   0  0  0  0  0  0  0  0  0  0  0  0
  -29.9976   -1.2142   30.2200 F   0  0  0  0  0  0  0  0  0  0  0  0
  -28.0499   -1.2944   31.1766 F   0  0  0  0  0  0  0  0  0  0  0  0
  -23.5295    2.2498   27.5998 C   0  0  0  0  0  0  0  0  0  0  0  0
  -23.5507    3.2131   26.8313 N   0  0  0  0  0  0  0  0  0  0  0  0
  -22.2939    1.8100   27.8969 O   0  0  0  0  0  0  0  0  0  0  0  0
  -28.1296    0.8008   26.6017 C   0  0  0  0  0  0  0  0  0  0  0  0
  -29.1475    1.3766   26.8775 O   0  0  0  0  0  0  0  0  0  0  0  0
  -28.0618    0.2491   25.3901 N   0  0  0  0  0  0  0  0  0  0  0  0
  -29.0420    0.1209   24.4912 C   0  0  0  0  0  0  0  0  0  0  0  0
  -26.7577   -0.3180   24.8223 C   0  0  0  0  0  0  0  0  0  0  0  0
  -29.8458    1.1663   24.3055 C   0  0  0  0  0  0  0  0  0  0  0  0
  -30.9132    1.3730   25.1016 C   0  0  0  0  0  0  0  0  0  0  0  0
  -31.9969    0.5549   25.0350 C   0  0  0  0  0  0  0  0  0  0  0  0
  -32.0136   -0.4005   24.1258 C   0  0  0  0  0  0  0  0  0  0  0  0
  -30.9407   -1.4209   23.9617 C   0  0  0  0  0  0  0  0  0  0  0  0
  -29.7967   -1.1276   24.6357 C   0  0  0  0  0  0  0  0  0  0  0  0
  -23.5202    0.5926   29.9353 C   0  0  0  0  0  0  0  0  0  0  0  0
  -23.6558    0.9639   31.0987 O   0  0  0  0  0  0  0  0  0  0  0  0
  -22.5491   -0.0273   29.6220 O   0  0  0  0  0  0  0  0  0  0  0  0
  -30.3732    1.6410   26.4431 C   0  0  0  0  0  0  0  0  0  0  0  0
  -31.2963    2.5327   27.3176 C   0  0  0  0  0  0  0  0  0  0  0  0
  -31.1675    3.8608   27.3596 C   0  0  0  0  0  0  0  0  0  0  0  0
  -30.0956    4.4485   27.1419 C   0  0  0  0  0  0  0  0  0  0  0  0
  -29.9076    5.9056   27.1877 C   0  0  0  0  0  0  0  0  0  0  0  0
  -31.0619    6.6421   27.3751 C   0  0  0  0  0  0  0  0  0  0  0  0
  -32.2690    6.0186   27.5549 C   0  0  0  0  0  0  0  0  0  0  0  0
  1  2  1  0
  1  8  1  0
  8  9  1  0
  8 10  1  0
  8 11  1  0
  5 12  1  0
 12 13  1  0
 12 14  2  0
  3 15  1  0
 15 16  1  0
 15 17  1  0
 17 18  1  0
 17 19  1  0
 18 20  2  0
 20 21  1  0
 21 22  2  0
 22 23  1  0
 23 24  2  0
 18 25  1  0
 24 25  1  0
  6 26  1  0
 26 27  1  0
 26 28  2  0
 16 29  1  0
 21 29  1  0
 29 30  1  0
 30 31  1  0
 31 32  2  3
 32 33  1  0
 33 34  2  3
 34 35  1  0
  2  3  2  0
  3  4  1  0
  4  5  2  0
  5  6  1  0
  6  7  2  0
  7  2  1  0
M  END

$$$$
