No_3988-gen_results/8p0m/2024-11-27-11-27-31/
     RDKit          3D

 18 19  0  0  0  0  0  0  0  0999 V2000
  -28.0162   -0.8135   28.8779 C   0  0  0  0  0  0  0  0  0  0  0  0
  -27.0636   -0.1189   28.6079 C   0  0  0  0  0  0  0  0  0  0  0  0
  -25.7647   -0.3897   29.0360 C   0  0  0  0  0  0  0  0  0  0  0  0
  -24.5516    0.4058   28.7646 C   0  0  0  0  0  0  0  0  0  0  0  0
  -23.2300    0.1178   29.2575 C   0  0  0  0  0  0  0  0  0  0  0  0
  -22.1393    0.9427   28.9224 C   0  0  0  0  0  0  0  0  0  0  0  0
  -27.8294   -1.9287   29.8545 C   0  0  0  0  0  0  0  0  0  0  0  0
  -26.5882   -2.3272   30.2682 C   0  0  0  0  0  0  0  0  0  0  0  0
  -25.4565   -1.5432   29.9146 C   0  0  0  0  0  0  0  0  0  0  0  0
  -22.2302    1.9089   27.8723 C   0  0  0  0  0  0  0  0  0  0  0  0
  -24.6745    1.7035   28.1407 C   0  0  0  0  0  0  0  0  0  0  0  0
  -23.5073    2.3437   27.5742 C   0  0  0  0  0  0  0  0  0  0  0  0
  -28.9805   -2.7809   30.2518 C   0  0  0  0  0  0  0  0  0  0  0  0
  -29.2401   -2.7971   31.5138 N   0  0  0  0  0  0  0  0  0  0  0  0
  -29.5038   -1.7750   32.1651 C   0  0  0  0  0  0  0  0  0  0  0  0
  -29.7046   -1.8846   33.6065 C   0  0  0  0  0  0  0  0  0  0  0  0
  -29.6356   -4.0834   32.2308 C   0  0  0  0  0  0  0  0  0  0  0  0
  -29.4633   -0.7631   34.4191 C   0  0  0  0  0  0  0  0  0  0  0  0
  3  4  1  0
  7 13  1  0
 13 14  1  0
 14 15  1  0
 15 16  2  3
 14 17  1  0
 16 18  1  0
  1  2  2  0
  2  3  1  0
  3  9  2  0
  9  8  1  0
  8  7  2  0
  7  1  1  0
  4  5  2  0
  5  6  1  0
  6 10  2  0
 10 12  1  0
 12 11  2  0
 11  4  1  0
M  END

$$$$
