No_3622-gen_results/8p0m/2024-11-27-11-27-31/
     RDKit          3D

 17 18  0  0  0  0  0  0  0  0999 V2000
  -28.0162   -0.8135   28.8779 C   0  0  0  0  0  0  0  0  0  0  0  0
  -28.4690   -0.7850   29.8287 C   0  0  0  0  0  0  0  0  0  0  0  0
  -26.5042   -0.7777   28.8766 C   0  0  0  0  0  0  0  0  0  0  0  0
  -25.8103   -0.8531   30.1028 C   0  0  0  0  0  0  0  0  0  0  0  0
  -27.9906   -0.8916   31.2257 C   0  0  0  0  0  0  0  0  0  0  0  0
  -26.6042   -0.8676   31.2652 C   0  0  0  0  0  0  0  0  0  0  0  0
  -30.0739   -0.8360   29.8615 C   0  0  0  0  0  0  0  0  0  0  0  0
  -30.6891   -1.6554   30.2229 O   0  0  0  0  0  0  0  0  0  0  0  0
  -30.6139    0.2846   29.2227 N   0  0  0  0  0  0  0  0  0  0  0  0
  -31.6416    0.5303   28.9297 C   0  0  0  0  0  0  0  0  0  0  0  0
  -32.2224    1.2456   28.3689 C   0  0  0  0  0  0  0  0  0  0  0  0
  -31.3466    2.3527   27.7989 C   0  0  0  0  0  0  0  0  0  0  0  0
  -29.9642    2.2285   27.9583 C   0  0  0  0  0  0  0  0  0  0  0  0
  -29.5352    1.2112   28.6729 C   0  0  0  0  0  0  0  0  0  0  0  0
  -25.6677   -0.6742   27.6545 C   0  0  0  0  0  0  0  0  0  0  0  0
  -24.3511   -0.2753   27.8100 C   0  0  0  0  0  0  0  0  0  0  0  0
  -23.8253    0.4313   28.3511 C   0  0  0  0  0  0  0  0  0  0  0  0
  2  7  1  0
  7  8  2  0
  7  9  1  0
  9 10  1  0
 11 12  1  0
  9 14  1  0
 13 14  1  0
  3 15  1  0
 15 16  1  0
 16 17  2  0
 10 11  1  0
 12 13  1  0
  1  2  2  0
  2  5  1  0
  5  6  2  0
  6  4  1  0
  4  3  2  0
  3  1  1  0
M  END

$$$$
