No_3617-gen_results/8p0m/2024-11-27-11-27-31/
     RDKit          3D

 14 15  0  0  0  0  0  0  0  0999 V2000
  -28.0162   -0.8135   28.8779 C   0  0  0  0  0  0  0  0  0  0  0  0
  -27.0636   -0.1190   28.6079 C   0  0  0  0  0  0  0  0  0  0  0  0
  -27.0010    0.6913   27.4910 C   0  0  0  0  0  0  0  0  0  0  0  0
  -28.1373    0.7363   26.6350 C   0  0  0  0  0  0  0  0  0  0  0  0
  -29.2360    0.0765   27.0690 C   0  0  0  0  0  0  0  0  0  0  0  0
  -29.2177   -0.6429   28.1747 C   0  0  0  0  0  0  0  0  0  0  0  0
  -28.0030   -1.6604   30.1266 C   0  0  0  0  0  0  0  0  0  0  0  0
  -27.1218   -2.5017   30.2445 O   0  0  0  0  0  0  0  0  0  0  0  0
  -29.0108   -1.6366   31.0273 N   0  0  0  0  0  0  0  0  0  0  0  0
  -29.0563   -2.5982   32.1039 C   0  0  0  0  0  0  0  0  0  0  0  0
  -30.3712    0.1654   26.2557 N   0  0  0  0  0  0  0  0  0  0  0  0
  -31.4661   -0.4099   26.6067 C   0  0  0  0  0  0  0  0  0  0  0  0
  -31.5611   -0.9826   27.8280 C   0  0  0  0  0  0  0  0  0  0  0  0
  -30.4388   -1.2175   28.5948 N   0  0  0  0  0  0  0  0  0  0  0  0
  1  7  1  0
  7  8  2  0
  7  9  1  0
  9 10  1  0
  1  2  2  0
  2  3  1  0
  3  4  2  0
  4  5  1  0
  6  1  1  0
  5  6  2  0
  6 14  1  0
 14 13  2  0
 13 12  1  0
 12 11  2  0
 11  5  1  0
M  END

$$$$
