No_3396-gen_results/8p0m/2024-11-27-11-27-31/
     RDKit          3D

 26 28  0  0  0  0  0  0  0  0999 V2000
  -28.0162   -0.8135   28.8779 C   0  0  0  0  0  0  0  0  0  0  0  0
  -28.4690   -0.7850   29.8287 C   0  0  0  0  0  0  0  0  0  0  0  0
  -26.5042   -0.7777   28.8766 C   0  0  0  0  0  0  0  0  0  0  0  0
  -25.8103   -0.8531   30.1028 C   0  0  0  0  0  0  0  0  0  0  0  0
  -27.9906   -0.8916   31.2257 C   0  0  0  0  0  0  0  0  0  0  0  0
  -26.6042   -0.8676   31.2652 C   0  0  0  0  0  0  0  0  0  0  0  0
  -29.9385   -0.8194   29.8358 O   0  0  0  0  0  0  0  0  0  0  0  0
  -30.5356   -0.1119   28.9448 C   0  0  0  0  0  0  0  0  0  0  0  0
  -31.4501   -0.5433   28.1111 C   0  0  0  0  0  0  0  0  0  0  0  0
  -32.0404    0.1645   27.0421 C   0  0  0  0  0  0  0  0  0  0  0  0
  -31.6050    1.5042   26.9115 C   0  0  0  0  0  0  0  0  0  0  0  0
  -30.6305    2.0115   27.7313 C   0  0  0  0  0  0  0  0  0  0  0  0
  -30.0462    1.2281   28.7239 C   0  0  0  0  0  0  0  0  0  0  0  0
  -24.3763   -0.8403   30.1385 C   0  0  0  0  0  0  0  0  0  0  0  0
  -23.6939   -1.2494   30.8251 C   0  0  0  0  0  0  0  0  0  0  0  0
  -22.1909   -1.1205   30.8938 C   0  0  0  0  0  0  0  0  0  0  0  0
  -21.6882   -0.4910   29.7736 C   0  0  0  0  0  0  0  0  0  0  0  0
  -23.6803   -0.1575   28.9956 C   0  0  0  0  0  0  0  0  0  0  0  0
  -22.4188    0.0380   28.8779 C   0  0  0  0  0  0  0  0  0  0  0  0
  -21.8963    0.6504   27.8155 F   0  0  0  0  0  0  0  0  0  0  0  0
  -31.8705   -1.8387   28.2066 O   0  0  0  0  0  0  0  0  0  0  0  0
  -32.6458   -2.4786   27.3184 C   0  0  0  0  0  0  0  0  0  0  0  0
  -32.3122   -3.7392   27.0561 C   0  0  0  0  0  0  0  0  0  0  0  0
  -31.2760   -4.1519   27.3374 O   0  0  0  0  0  0  0  0  0  0  0  0
  -33.0665   -4.4363   26.2545 O   0  0  0  0  0  0  0  0  0  0  0  0
  -33.2854   -1.7124   26.5622 O   0  0  0  0  0  0  0  0  0  0  0  0
  2  7  1  0
  7  8  1  0
  4 14  1  0
 19 20  1  0
  9 21  1  0
 21 22  1  0
 22 23  1  0
 23 24  2  0
 23 25  1  0
 22 26  2  0
 14 15  2  0
 15 16  1  0
 16 17  2  0
 17 19  1  0
 19 18  2  0
 18 14  1  0
  8  9  2  0
  9 10  1  0
 10 11  2  0
 11 12  1  0
 12 13  2  0
 13  8  1  0
  1  2  2  0
  2  5  1  0
  5  6  2  0
  6  4  1  0
  4  3  2  0
  3  1  1  0
M  END

$$$$
