No_3794-gen_results/8p0m/2024-11-27-11-27-31/
     RDKit          3D

 35 38  0  0  0  0  0  0  0  0999 V2000
  -28.0162   -0.8135   28.8779 C   0  0  0  0  0  0  0  0  0  0  0  0
  -27.0636   -0.1189   28.6079 C   0  0  0  0  0  0  0  0  0  0  0  0
  -26.8756    1.1325   28.9134 C   0  0  0  0  0  0  0  0  0  0  0  0
  -27.9014    1.8066   29.6436 C   0  0  0  0  0  0  0  0  0  0  0  0
  -29.0458   -0.2316   29.7181 C   0  0  0  0  0  0  0  0  0  0  0  0
  -28.9402    1.0517   30.0597 C   0  0  0  0  0  0  0  0  0  0  0  0
  -25.9795   -0.6907   27.8753 O   0  0  0  0  0  0  0  0  0  0  0  0
  -24.6270   -0.4702   28.3306 C   0  0  0  0  0  0  0  0  0  0  0  0
  -23.9340    0.6221   27.7608 C   0  0  0  0  0  0  0  0  0  0  0  0
  -22.6298    0.8032   28.1945 C   0  0  0  0  0  0  0  0  0  0  0  0
  -21.9621   -0.1863   28.9694 C   0  0  0  0  0  0  0  0  0  0  0  0
  -24.0850   -1.3635   29.2289 C   0  0  0  0  0  0  0  0  0  0  0  0
  -22.7449   -1.2352   29.5122 C   0  0  0  0  0  0  0  0  0  0  0  0
  -21.6249    2.0636   27.5588 Cl  0  0  0  0  0  0  0  0  0  0  0  0
  -27.7472    3.2648   30.0001 C   0  0  0  0  0  0  0  0  0  0  0  0
  -27.7585    4.2550   29.4840 C   0  0  0  0  0  0  0  0  0  0  0  0
  -27.4513    5.6016   29.9676 C   0  0  0  0  0  0  0  0  0  0  0  0
  -27.0623    5.6953   31.2988 C   0  0  0  0  0  0  0  0  0  0  0  0
  -27.1076    3.4948   31.4501 C   0  0  0  0  0  0  0  0  0  0  0  0
  -26.8580    4.6034   32.0204 C   0  0  0  0  0  0  0  0  0  0  0  0
  -30.4049   -1.1597   30.1343 Cl  0  0  0  0  0  0  0  0  0  0  0  0
  -28.2206    4.3152   28.0288 C   0  0  0  0  0  0  0  0  0  0  0  0
  -27.6361    4.9417   27.1640 C   0  0  0  0  0  0  0  0  0  0  0  0
  -26.9120    5.3409   26.4161 C   0  0  0  0  0  0  0  0  0  0  0  0
  -29.4314    3.6349   27.7088 C   0  0  0  0  0  0  0  0  0  0  0  0
  -30.6782    4.0797   28.1275 C   0  0  0  0  0  0  0  0  0  0  0  0
  -29.3987    2.6846   26.6466 C   0  0  0  0  0  0  0  0  0  0  0  0
  -30.5420    1.9080   26.3555 C   0  0  0  0  0  0  0  0  0  0  0  0
  -30.8623    5.0635   29.2008 C   0  0  0  0  0  0  0  0  0  0  0  0
  -31.7458    2.2906   26.8730 C   0  0  0  0  0  0  0  0  0  0  0  0
  -31.8316    3.3002   27.8004 C   0  0  0  0  0  0  0  0  0  0  0  0
  -31.2949    6.3677   28.7406 C   0  0  0  0  0  0  0  0  0  0  0  0
  -31.4369    7.4111   29.6724 C   0  0  0  0  0  0  0  0  0  0  0  0
  -31.2753    7.1034   31.0584 C   0  0  0  0  0  0  0  0  0  0  0  0
  -30.7116    4.8235   30.5566 C   0  0  0  0  0  0  0  0  0  0  0  0
  2  7  1  0
  7  8  1  0
 10 14  1  0
  4 15  1  0
  5 21  1  0
 16 22  1  0
 22 23  2  3
 23 24  1  0
 22 25  1  0
 26 29  1  0
 29 32  2  3
 32 33  1  0
 33 34  2  0
 29 35  1  0
 15 16  1  0
 16 17  2  0
 17 18  1  0
 18 20  2  0
 20 19  1  0
 19 15  2  0
  1  2  2  0
  2  3  1  0
  3  4  2  0
  4  6  1  0
  6  5  2  0
  5  1  1  0
 25 26  2  0
 26 31  1  0
 31 30  2  0
 30 28  1  0
 28 27  2  0
 27 25  1  0
  8  9  2  0
  9 10  1  0
 10 11  2  0
 11 13  1  0
 13 12  2  0
 12  8  1  0
M  END

$$$$
