No_3354-gen_results/8p0m/2024-11-27-11-27-31/
     RDKit          3D

 18 18  0  0  0  0  0  0  0  0999 V2000
  -28.0162   -0.8135   28.8779 C   0  0  0  0  0  0  0  0  0  0  0  0
  -28.4690   -0.7850   29.8287 C   0  0  0  0  0  0  0  0  0  0  0  0
  -26.5042   -0.7777   28.8766 C   0  0  0  0  0  0  0  0  0  0  0  0
  -25.8103   -0.8531   30.1028 C   0  0  0  0  0  0  0  0  0  0  0  0
  -27.9906   -0.8916   31.2257 C   0  0  0  0  0  0  0  0  0  0  0  0
  -26.6042   -0.8676   31.2652 C   0  0  0  0  0  0  0  0  0  0  0  0
  -25.7504   -0.8487   32.7189 Cl  0  0  0  0  0  0  0  0  0  0  0  0
  -26.1789   -1.4622   30.5544 Cl  0  0  0  0  0  0  0  0  0  0  0  0
  -28.8117   -0.8635   32.4517 C   0  0  0  0  0  0  0  0  0  0  0  0
  -28.6818   -1.4436   31.7212 C   0  0  0  0  0  0  0  0  0  0  0  0
  -28.2359    0.4040   31.3739 C   0  0  0  0  0  0  0  0  0  0  0  0
  -26.6005    0.2489   32.2593 C   0  0  0  0  0  0  0  0  0  0  0  0
  -25.4582    1.3299   31.9986 C   0  0  0  0  0  0  0  0  0  0  0  0
  -29.0902   -2.8617   31.6577 C   0  0  0  0  0  0  0  0  0  0  0  0
  -29.0569   -1.8271   32.5708 F   0  0  0  0  0  0  0  0  0  0  0  0
  -27.3838    0.6591   33.3819 C   0  0  0  0  0  0  0  0  0  0  0  0
  -28.1049    1.4697   32.2210 C   0  0  0  0  0  0  0  0  0  0  0  0
  -28.6614    1.1620   30.4299 O   0  0  0  0  0  0  0  0  0  0  0  0
  1  2  1  0
  1  3  2  3
  3  4  1  0
  2  5  2  3
  4  6  1  0
  6  7  1  0
  4  8  1  0
  5  9  1  0
  9 10  1  0
  5 11  1  0
  6 12  1  0
 12 13  1  0
 10 14  1  0
 10 15  1  0
 12 16  1  0
 11 17  1  0
 16 17  1  0
 11 18  1  0
M  END

$$$$
