No_3283-gen_results/8p0m/2024-11-27-11-27-31/
     RDKit          3D

 19 19  0  0  0  0  0  0  0  0999 V2000
  -28.0162   -0.8135   28.8779 C   0  0  0  0  0  0  0  0  0  0  0  0
  -27.0636   -0.1190   28.6079 C   0  0  0  0  0  0  0  0  0  0  0  0
  -26.8756    1.1325   28.9134 C   0  0  0  0  0  0  0  0  0  0  0  0
  -25.6883    1.9515   28.5672 C   0  0  0  0  0  0  0  0  0  0  0  0
  -24.6394    1.2834   27.8753 C   0  0  0  0  0  0  0  0  0  0  0  0
  -24.8068   -0.0513   27.6040 C   0  0  0  0  0  0  0  0  0  0  0  0
  -25.9019   -0.7670   27.9511 C   0  0  0  0  0  0  0  0  0  0  0  0
  -28.6455   -0.5282   30.2428 C   0  0  0  0  0  0  0  0  0  0  0  0
  -29.6221   -0.8997   30.6143 N   0  0  0  0  0  0  0  0  0  0  0  0
  -23.4416    1.9849   27.4627 C   0  0  0  0  0  0  0  0  0  0  0  0
  -23.4267    2.5228   26.4545 F   0  0  0  0  0  0  0  0  0  0  0  0
  -22.9907    2.8535   28.4735 F   0  0  0  0  0  0  0  0  0  0  0  0
  -22.3338    1.0973   27.4867 F   0  0  0  0  0  0  0  0  0  0  0  0
  -30.4736   -1.5844   30.0143 C   0  0  0  0  0  0  0  0  0  0  0  0
  -30.6921   -2.9239   30.4322 C   0  0  0  0  0  0  0  0  0  0  0  0
  -31.4548   -3.7448   29.5989 C   0  0  0  0  0  0  0  0  0  0  0  0
  -31.0690   -5.0077   29.3886 N   0  0  0  0  0  0  0  0  0  0  0  0
  -30.0226   -5.4472   30.1185 C   0  0  0  0  0  0  0  0  0  0  0  0
  -29.1423   -4.6981   30.8305 C   0  0  0  0  0  0  0  0  0  0  0  0
  1  2  2  3
  2  3  1  0
  3  4  1  0
  4  5  1  0
  5  6  1  0
  2  7  1  0
  6  7  1  0
  1  8  1  0
  8  9  1  0
  5 10  1  0
 10 11  1  0
 10 12  1  0
 10 13  1  0
  9 14  1  0
 14 15  2  3
 15 16  1  0
 16 17  1  0
 17 18  2  3
 18 19  1  0
M  END

$$$$
