No_3940-gen_results/8p0m/2024-11-27-11-27-31/
     RDKit          3D

 29 33  0  0  0  0  0  0  0  0999 V2000
  -28.0162   -0.8135   28.8779 C   0  0  0  0  0  0  0  0  0  0  0  0
  -27.0636   -0.1189   28.6079 C   0  0  0  0  0  0  0  0  0  0  0  0
  -25.7647   -0.3897   29.0360 C   0  0  0  0  0  0  0  0  0  0  0  0
  -24.5516    0.4058   28.7646 C   0  0  0  0  0  0  0  0  0  0  0  0
  -23.2300    0.1178   29.2575 C   0  0  0  0  0  0  0  0  0  0  0  0
  -23.0942   -1.1309   29.8730 C   0  0  0  0  0  0  0  0  0  0  0  0
  -27.7980   -1.9341   29.8560 C   0  0  0  0  0  0  0  0  0  0  0  0
  -26.5420   -2.3269   30.2580 C   0  0  0  0  0  0  0  0  0  0  0  0
  -25.4514   -1.5516   29.9079 C   0  0  0  0  0  0  0  0  0  0  0  0
  -24.1562   -1.9097   30.2809 C   0  0  0  0  0  0  0  0  0  0  0  0
  -24.6450    1.6582   27.9464 C   0  0  0  0  0  0  0  0  0  0  0  0
  -23.7170    1.8151   26.9240 C   0  0  0  0  0  0  0  0  0  0  0  0
  -25.5412    2.6090   28.2496 C   0  0  0  0  0  0  0  0  0  0  0  0
  -25.7950    3.6652   27.3879 C   0  0  0  0  0  0  0  0  0  0  0  0
  -23.8700    2.9154   26.0237 C   0  0  0  0  0  0  0  0  0  0  0  0
  -24.7960    3.9089   26.3309 C   0  0  0  0  0  0  0  0  0  0  0  0
  -26.6764    4.7663   27.6234 C   0  0  0  0  0  0  0  0  0  0  0  0
  -27.0739    4.8994   28.7978 O   0  0  0  0  0  0  0  0  0  0  0  0
  -27.6234    5.6658   29.4201 C   0  0  0  0  0  0  0  0  0  0  0  0
  -28.1567    5.9672   30.2369 C   0  0  0  0  0  0  0  0  0  0  0  0
  -27.8403    6.8608   28.4581 N   0  0  0  0  0  0  0  0  0  0  0  0
  -28.0402    5.0848   31.4820 C   0  0  0  0  0  0  0  0  0  0  0  0
  -26.8457    4.5907   31.6909 C   0  0  0  0  0  0  0  0  0  0  0  0
  -26.7996    3.2361   32.1624 C   0  0  0  0  0  0  0  0  0  0  0  0
  -27.7768    2.4361   31.8626 C   0  0  0  0  0  0  0  0  0  0  0  0
  -29.0907    2.8805   31.7597 C   0  0  0  0  0  0  0  0  0  0  0  0
  -29.1646    4.2370   31.1897 C   0  0  0  0  0  0  0  0  0  0  0  0
  -26.4385    6.2319   27.3951 C   0  0  0  0  0  0  0  0  0  0  0  0
  -28.6135    7.2275   27.7374 C   0  0  0  0  0  0  0  0  0  0  0  0
  4 11  1  0
 14 17  1  0
 17 18  1  0
 18 19  1  0
 19 20  2  3
 19 21  1  0
 20 22  1  0
 17 28  1  0
 21 28  1  0
 21 29  1  0
 11 12  2  0
 12 15  1  0
 15 16  2  0
 16 14  1  0
 14 13  2  0
 13 11  1  0
 22 23  2  0
 23 24  1  0
 24 25  2  0
 25 26  1  0
 26 27  2  0
 27 22  1  0
  1  2  2  0
  2  3  1  0
  9  8  1  0
  8  7  2  0
  7  1  1  0
  3  4  2  0
  4  5  1  0
  5  6  2  0
  6 10  1  0
 10  9  2  0
  9  3  1  0
M  END

$$$$
