No_3156-gen_results/8p0m/2024-11-27-11-27-31/
     RDKit          3D

 28 30  0  0  0  0  0  0  0  0999 V2000
  -28.0162   -0.8135   28.8779 C   0  0  0  0  0  0  0  0  0  0  0  0
  -27.0636   -0.1190   28.6079 C   0  0  0  0  0  0  0  0  0  0  0  0
  -25.7923   -0.4302   29.0761 C   0  0  0  0  0  0  0  0  0  0  0  0
  -24.5456    0.3494   28.8225 C   0  0  0  0  0  0  0  0  0  0  0  0
  -24.6586    1.4196   27.8878 C   0  0  0  0  0  0  0  0  0  0  0  0
  -25.9471    1.6811   27.3792 C   0  0  0  0  0  0  0  0  0  0  0  0
  -27.0439    0.9739   27.6871 C   0  0  0  0  0  0  0  0  0  0  0  0
  -28.0241   -1.6475   30.1263 C   0  0  0  0  0  0  0  0  0  0  0  0
  -26.7278   -2.0846   30.5807 C   0  0  0  0  0  0  0  0  0  0  0  0
  -25.5915   -1.4064   30.1489 C   0  0  0  0  0  0  0  0  0  0  0  0
  -23.4486    2.1675   27.5241 C   0  0  0  0  0  0  0  0  0  0  0  0
  -23.7091    3.3634   27.3211 F   0  0  0  0  0  0  0  0  0  0  0  0
  -22.3563    1.7284   27.3698 F   0  0  0  0  0  0  0  0  0  0  0  0
  -29.1716   -2.4545   30.5299 C   0  0  0  0  0  0  0  0  0  0  0  0
  -30.1718   -1.9947   30.4402 F   0  0  0  0  0  0  0  0  0  0  0  0
  -28.8565   -2.7615   31.8473 F   0  0  0  0  0  0  0  0  0  0  0  0
  -29.1375   -3.7115   30.0120 F   0  0  0  0  0  0  0  0  0  0  0  0
  -28.3220    1.3851   27.0093 C   0  0  0  0  0  0  0  0  0  0  0  0
  -28.5023    1.4179   25.8703 O   0  0  0  0  0  0  0  0  0  0  0  0
  -29.3505    1.5603   27.8231 O   0  0  0  0  0  0  0  0  0  0  0  0
  -22.8766   -0.0911   29.5020 Br  0  0  0  0  0  0  0  0  0  0  0  0
  -29.6551    2.6990   28.2908 C   0  0  0  0  0  0  0  0  0  0  0  0
  -30.8407    2.8928   28.5402 C   0  0  0  0  0  0  0  0  0  0  0  0
  -31.8276    1.9554   28.6227 C   0  0  0  0  0  0  0  0  0  0  0  0
  -33.2264    2.1389   28.8942 C   0  0  0  0  0  0  0  0  0  0  0  0
  -33.6067    3.4719   29.1502 C   0  0  0  0  0  0  0  0  0  0  0  0
  -32.7719    4.5125   29.1139 C   0  0  0  0  0  0  0  0  0  0  0  0
  -31.3899    4.2685   28.8598 C   0  0  0  0  0  0  0  0  0  0  0  0
  5 11  1  0
 11 12  1  0
 11 13  1  0
  8 14  1  0
 14 15  1  0
 14 16  1  0
 14 17  1  0
  7 18  1  0
 18 19  2  0
 18 20  1  0
  4 21  1  0
 20 22  1  0
 22 23  1  0
  3  4  1  0
  4  5  2  0
  5  6  1  0
  6  7  2  0
  7  2  1  0
 23 24  2  0
 24 25  1  0
 25 26  2  0
 26 27  1  0
 27 28  2  0
 28 23  1  0
  1  2  2  0
  2  3  1  0
  3 10  2  0
 10  9  1  0
  9  8  2  0
  8  1  1  0
M  END

$$$$
