No_3415-gen_results/8p0m/2024-11-27-11-27-31/
     RDKit          3D

 14 16  0  0  0  0  0  0  0  0999 V2000
  -28.0162   -0.8135   28.8779 C   0  0  0  0  0  0  0  0  0  0  0  0
  -28.4690   -0.7850   29.8287 C   0  0  0  0  0  0  0  0  0  0  0  0
  -27.0871    0.2903   28.6377 C   0  0  0  0  0  0  0  0  0  0  0  0
  -26.2516    0.4114   27.4223 C   0  0  0  0  0  0  0  0  0  0  0  0
  -28.3913    0.1041   30.9805 C   0  0  0  0  0  0  0  0  0  0  0  0
  -27.5332    1.1666   30.7866 C   0  0  0  0  0  0  0  0  0  0  0  0
  -26.8281    1.2557   29.6454 C   0  0  0  0  0  0  0  0  0  0  0  0
  -25.1384    0.6748   27.2307 C   0  0  0  0  0  0  0  0  0  0  0  0
  -24.3157    0.8670   28.4419 C   0  0  0  0  0  0  0  0  0  0  0  0
  -23.3533    0.3544   28.6369 C   0  0  0  0  0  0  0  0  0  0  0  0
  -22.3335    0.6862   29.7210 C   0  0  0  0  0  0  0  0  0  0  0  0
  -22.9362    0.7534   30.6931 C   0  0  0  0  0  0  0  0  0  0  0  0
  -24.2714    1.3598   30.8789 C   0  0  0  0  0  0  0  0  0  0  0  0
  -25.0379    1.3527   29.6538 C   0  0  0  0  0  0  0  0  0  0  0  0
  9 10  1  0
 10 11  2  0
 11 12  1  0
 12 13  2  0
 13 14  1  0
  3  4  2  0
  4  8  1  0
  8  9  2  0
  9 14  1  0
 14  7  2  0
  1  2  2  0
  2  5  1  0
  5  6  2  0
  6  7  1  0
  7  3  1  0
  3  1  1  0
M  END

$$$$
