No_3841-gen_results/8p0m/2024-11-27-11-27-31/
     RDKit          3D

 12 12  0  0  0  0  0  0  0  0999 V2000
  -28.0162   -0.8135   28.8779 C   0  0  0  0  0  0  0  0  0  0  0  0
  -28.4690   -0.7850   29.8287 C   0  0  0  0  0  0  0  0  0  0  0  0
  -28.1816    0.4277   28.1134 C   0  0  0  0  0  0  0  0  0  0  0  0
  -28.1361    1.4586   28.7602 C   0  0  0  0  0  0  0  0  0  0  0  0
  -28.4245    0.3031   30.8388 C   0  0  0  0  0  0  0  0  0  0  0  0
  -28.6604    1.5827   30.1044 C   0  0  0  0  0  0  0  0  0  0  0  0
  -27.8022    0.3926   26.6574 C   0  0  0  0  0  0  0  0  0  0  0  0
  -26.3866    0.4849   26.3098 C   0  0  0  0  0  0  0  0  0  0  0  0
  -25.4789    0.3379   27.3184 C   0  0  0  0  0  0  0  0  0  0  0  0
  -24.1156    0.7115   27.0490 C   0  0  0  0  0  0  0  0  0  0  0  0
  -23.1047    0.6953   28.0966 C   0  0  0  0  0  0  0  0  0  0  0  0
  -23.3832   -0.1620   29.1894 C   0  0  0  0  0  0  0  0  0  0  0  0
  3  7  1  0
  7  8  1  0
  8  9  2  3
  9 10  1  0
 10 11  2  3
 11 12  1  0
  1  2  2  0
  2  5  1  0
  5  6  2  0
  6  4  1  0
  4  3  2  0
  3  1  1  0
M  END

$$$$
