No_3598-gen_results/8p0m/2024-11-27-11-27-31/
     RDKit          3D

 25 26  0  0  0  0  0  0  0  0999 V2000
  -28.0727   -1.2542   28.5316 F   0  0  0  0  0  0  0  0  0  0  0  0
  -27.3591   -0.3792   28.7224 C   0  0  0  0  0  0  0  0  0  0  0  0
  -27.7576    0.4972   29.4009 F   0  0  0  0  0  0  0  0  0  0  0  0
  -26.0810   -0.3916   28.0774 C   0  0  0  0  0  0  0  0  0  0  0  0
  -25.7306    0.7169   27.3094 C   0  0  0  0  0  0  0  0  0  0  0  0
  -25.2087    1.8685   27.9297 C   0  0  0  0  0  0  0  0  0  0  0  0
  -24.3246    1.6752   28.8646 C   0  0  0  0  0  0  0  0  0  0  0  0
  -23.0120    1.2883   28.3362 C   0  0  0  0  0  0  0  0  0  0  0  0
  -22.3357    2.0961   27.4828 C   0  0  0  0  0  0  0  0  0  0  0  0
  -22.3851    0.1501   29.0163 C   0  0  0  0  0  0  0  0  0  0  0  0
  -23.0486   -0.6127   29.8070 N   0  0  0  0  0  0  0  0  0  0  0  0
  -21.0615   -0.0512   28.8234 N   0  0  0  0  0  0  0  0  0  0  0  0
  -25.3132   -1.3916   28.2265 F   0  0  0  0  0  0  0  0  0  0  0  0
  -25.8142    3.1672   27.5685 C   0  0  0  0  0  0  0  0  0  0  0  0
  -20.9332    1.6456   27.2351 C   0  0  0  0  0  0  0  0  0  0  0  0
  -20.3629    0.6362   27.9168 C   0  0  0  0  0  0  0  0  0  0  0  0
  -25.5706    4.1642   28.3318 N   0  0  0  0  0  0  0  0  0  0  0  0
  -26.0124    4.4372   29.5278 C   0  0  0  0  0  0  0  0  0  0  0  0
  -25.6677    5.6348   30.2185 C   0  0  0  0  0  0  0  0  0  0  0  0
  -25.7180    5.7104   31.6184 C   0  0  0  0  0  0  0  0  0  0  0  0
  -26.2201    4.6107   32.3661 C   0  0  0  0  0  0  0  0  0  0  0  0
  -26.4954    3.4252   31.6565 C   0  0  0  0  0  0  0  0  0  0  0  0
  -26.3381    3.3255   30.3256 C   0  0  0  0  0  0  0  0  0  0  0  0
  -25.4218    5.5253   27.5519 C   0  0  0  0  0  0  0  0  0  0  0  0
  -26.4822    3.1954   26.5278 O   0  0  0  0  0  0  0  0  0  0  0  0
  1  2  1  0
  2  3  1  0
  2  4  1  0
  4  5  1  0
  5  6  1  0
  6  7  1  0
  7  8  1  0
 10 11  1  0
  4 13  1  0
  6 14  1  0
 14 17  1  0
 17 18  1  0
 17 24  1  0
 14 25  2  0
 18 19  2  0
 19 20  1  0
 20 21  2  0
 21 22  1  0
 22 23  2  0
 23 18  1  0
  8  9  2  0
  9 15  1  0
 15 16  2  0
 16 12  1  0
 12 10  2  0
 10  8  1  0
M  END

$$$$
