No_3573-gen_results/8p0m/2024-11-27-11-27-31/
     RDKit          3D

 22 24  0  0  0  0  0  0  0  0999 V2000
  -28.0162   -0.8135   28.8779 C   0  0  0  0  0  0  0  0  0  0  0  0
  -27.0636   -0.1190   28.6079 C   0  0  0  0  0  0  0  0  0  0  0  0
  -26.9287    1.1713   29.0083 C   0  0  0  0  0  0  0  0  0  0  0  0
  -25.7702    2.0341   28.6884 C   0  0  0  0  0  0  0  0  0  0  0  0
  -24.7141    1.4431   27.9188 C   0  0  0  0  0  0  0  0  0  0  0  0
  -24.8590    0.0783   27.5836 C   0  0  0  0  0  0  0  0  0  0  0  0
  -25.9647   -0.6606   27.9164 C   0  0  0  0  0  0  0  0  0  0  0  0
  -28.7025   -0.6427   30.0750 N   0  0  0  0  0  0  0  0  0  0  0  0
  -29.5716   -1.0828   30.6278 C   0  0  0  0  0  0  0  0  0  0  0  0
  -30.3573   -2.3908   29.9331 Cl  0  0  0  0  0  0  0  0  0  0  0  0
  -29.9224   -1.0141   31.8813 O   0  0  0  0  0  0  0  0  0  0  0  0
  -23.5301    2.1787   27.5648 C   0  0  0  0  0  0  0  0  0  0  0  0
  -22.5467    1.7240   27.1166 O   0  0  0  0  0  0  0  0  0  0  0  0
  -23.7051    3.5146   27.6141 O   0  0  0  0  0  0  0  0  0  0  0  0
  -27.9173    1.8173   29.8390 C   0  0  0  0  0  0  0  0  0  0  0  0
  -28.8361    0.8275   30.4605 C   0  0  0  0  0  0  0  0  0  0  0  0
  -27.9070    3.1623   30.1969 C   0  0  0  0  0  0  0  0  0  0  0  0
  -27.3960    3.6310   31.3409 C   0  0  0  0  0  0  0  0  0  0  0  0
  -27.3574    4.9913   31.6753 C   0  0  0  0  0  0  0  0  0  0  0  0
  -27.7967    5.9211   30.7360 C   0  0  0  0  0  0  0  0  0  0  0  0
  -28.2887    5.4362   29.5196 C   0  0  0  0  0  0  0  0  0  0  0  0
  -28.3381    4.0953   29.2233 C   0  0  0  0  0  0  0  0  0  0  0  0
  1  2  1  0
  1  8  1  0
  8  9  1  0
  9 10  1  0
  9 11  2  0
  5 12  1  0
 12 13  2  0
 12 14  1  0
  3 15  1  0
  8 16  1  0
 15 17  1  0
 15 16  1  0
 17 18  2  0
 18 19  1  0
 19 20  2  0
 20 21  1  0
 21 22  2  0
 22 17  1  0
  2  7  2  0
  7  6  1  0
  6  5  2  0
  5  4  1  0
  4  3  2  0
  3  2  1  0
M  END

$$$$
