No_3201-gen_results/8p0m/2024-11-27-11-27-31/
     RDKit          3D

 17 18  0  0  0  0  0  0  0  0999 V2000
  -28.0162   -0.8135   28.8779 C   0  0  0  0  0  0  0  0  0  0  0  0
  -28.4690   -0.7850   29.8287 C   0  0  0  0  0  0  0  0  0  0  0  0
  -28.1960    0.3478   28.0550 C   0  0  0  0  0  0  0  0  0  0  0  0
  -29.0191    1.3501   28.3782 C   0  0  0  0  0  0  0  0  0  0  0  0
  -29.4107    0.1803   30.3782 C   0  0  0  0  0  0  0  0  0  0  0  0
  -29.6059    1.2495   29.6193 C   0  0  0  0  0  0  0  0  0  0  0  0
  -27.3479    0.2333   26.8118 C   0  0  0  0  0  0  0  0  0  0  0  0
  -26.3397    1.3271   26.7003 C   0  0  0  0  0  0  0  0  0  0  0  0
  -25.0386    0.9774   26.4020 C   0  0  0  0  0  0  0  0  0  0  0  0
  -24.0261    1.9833   26.3755 C   0  0  0  0  0  0  0  0  0  0  0  0
  -24.4079    3.2916   26.6911 C   0  0  0  0  0  0  0  0  0  0  0  0
  -25.7094    3.6611   26.9770 C   0  0  0  0  0  0  0  0  0  0  0  0
  -26.6889    2.6388   27.0472 C   0  0  0  0  0  0  0  0  0  0  0  0
  -30.4476    2.2784   29.9616 O   0  0  0  0  0  0  0  0  0  0  0  0
  -30.9914    3.0411   29.3231 C   0  0  0  0  0  0  0  0  0  0  0  0
  -30.6554    4.3304   29.4974 C   0  0  0  0  0  0  0  0  0  0  0  0
  -31.0845    5.3692   28.5823 C   0  0  0  0  0  0  0  0  0  0  0  0
  3  7  1  0
  7  8  1  0
  6 14  1  0
 14 15  1  0
 15 16  2  3
 16 17  1  0
  8  9  2  0
  9 10  1  0
 10 11  2  0
 11 12  1  0
 12 13  2  0
 13  8  1  0
  1  2  2  0
  2  5  1  0
  5  6  2  0
  6  4  1  0
  4  3  2  0
  3  1  1  0
M  END

$$$$
