No_3858-gen_results/8p0m/2024-11-27-11-27-31/
     RDKit          3D

 13 14  0  0  0  0  0  0  0  0999 V2000
  -28.0162   -0.8135   28.8779 C   0  0  0  0  0  0  0  0  0  0  0  0
  -28.4690   -0.7850   29.8287 C   0  0  0  0  0  0  0  0  0  0  0  0
  -26.6028   -1.0596   28.5384 C   0  0  0  0  0  0  0  0  0  0  0  0
  -25.7969   -1.4490   29.7273 C   0  0  0  0  0  0  0  0  0  0  0  0
  -26.4628   -1.5399   30.9726 C   0  0  0  0  0  0  0  0  0  0  0  0
  -27.7695   -1.2480   31.0791 C   0  0  0  0  0  0  0  0  0  0  0  0
  -24.3996   -1.7453   29.5805 C   0  0  0  0  0  0  0  0  0  0  0  0
  -23.4343   -0.7194   29.8298 C   0  0  0  0  0  0  0  0  0  0  0  0
  -23.5583    0.1344   30.7760 C   0  0  0  0  0  0  0  0  0  0  0  0
  -22.8813    1.4129   30.7085 C   0  0  0  0  0  0  0  0  0  0  0  0
  -22.2784    1.7165   29.4477 C   0  0  0  0  0  0  0  0  0  0  0  0
  -22.2134    0.8594   28.4069 C   0  0  0  0  0  0  0  0  0  0  0  0
  -22.7982   -0.3946   28.5448 C   0  0  0  0  0  0  0  0  0  0  0  0
  4  7  1  0
  7  8  1  0
  1  2  2  0
  2  6  1  0
  6  5  2  0
  5  4  1  0
  4  3  2  0
  3  1  1  0
  8  9  2  0
  9 10  1  0
 10 11  2  0
 11 12  1  0
 12 13  2  0
 13  8  1  0
M  END

$$$$
