No_3071-gen_results/8p0m/2024-11-27-11-27-31/
     RDKit          3D

 23 24  0  0  0  0  0  0  0  0999 V2000
  -28.1229   -1.3353   28.4874 O   0  0  0  0  0  0  0  0  0  0  0  0
  -28.5208   -0.4363   29.0779 C   0  0  0  0  0  0  0  0  0  0  0  0
  -29.6977    0.0507   28.9764 C   0  0  0  0  0  0  0  0  0  0  0  0
  -27.7059   -0.0219   30.1625 N   0  0  0  0  0  0  0  0  0  0  0  0
  -26.3949   -0.3536   30.3653 C   0  0  0  0  0  0  0  0  0  0  0  0
  -29.9749    0.3929   27.9299 O   0  0  0  0  0  0  0  0  0  0  0  0
  -30.7186   -0.2740   29.9247 N   0  0  0  0  0  0  0  0  0  0  0  0
  -32.0690    0.0932   29.7198 C   0  0  0  0  0  0  0  0  0  0  0  0
  -32.7902    0.0553   30.5997 C   0  0  0  0  0  0  0  0  0  0  0  0
  -34.2444    0.2270   30.4745 C   0  0  0  0  0  0  0  0  0  0  0  0
  -34.6782    0.5415   29.1537 C   0  0  0  0  0  0  0  0  0  0  0  0
  -33.7713    0.5632   28.1252 C   0  0  0  0  0  0  0  0  0  0  0  0
  -32.4625    0.2955   28.3381 C   0  0  0  0  0  0  0  0  0  0  0  0
  -25.4506    0.5241   29.8773 C   0  0  0  0  0  0  0  0  0  0  0  0
  -25.2057    0.6234   28.6367 C   0  0  0  0  0  0  0  0  0  0  0  0
  -24.2435    1.4747   28.0751 C   0  0  0  0  0  0  0  0  0  0  0  0
  -24.1948    1.9656   26.8032 C   0  0  0  0  0  0  0  0  0  0  0  0
  -23.2302    2.9607   26.4511 C   0  0  0  0  0  0  0  0  0  0  0  0
  -25.0774    1.4341   25.8639 C   0  0  0  0  0  0  0  0  0  0  0  0
  -25.8568    0.3467   26.2602 C   0  0  0  0  0  0  0  0  0  0  0  0
  -26.0697    0.1197   27.5911 C   0  0  0  0  0  0  0  0  0  0  0  0
  -25.7791    1.9230   30.4467 C   0  0  0  0  0  0  0  0  0  0  0  0
  -24.1528    0.1453   30.5846 C   0  0  0  0  0  0  0  0  0  0  0  0
  1  2  2  0
  2  3  1  0
  2  4  1  0
  4  5  1  0
  3  6  2  0
  3  7  1  0
  7  8  1  0
  5 14  1  0
 14 15  1  0
 17 18  1  0
 14 22  1  0
 14 23  1  0
  8  9  2  0
  9 10  1  0
 10 11  2  0
 11 12  1  0
 12 13  2  0
 13  8  1  0
 15 16  2  0
 16 17  1  0
 17 19  2  0
 19 20  1  0
 20 21  2  0
 21 15  1  0
M  END

$$$$
