No_3943-gen_results/8p0m/2024-11-27-11-27-31/
     RDKit          3D

 11 11  0  0  0  0  0  0  0  0999 V2000
  -28.0162   -0.8135   28.8779 C   0  0  0  0  0  0  0  0  0  0  0  0
  -27.0636   -0.1190   28.6079 C   0  0  0  0  0  0  0  0  0  0  0  0
  -27.0010    0.6913   27.4910 C   0  0  0  0  0  0  0  0  0  0  0  0
  -28.1373    0.7363   26.6350 C   0  0  0  0  0  0  0  0  0  0  0  0
  -29.2360    0.0765   27.0690 C   0  0  0  0  0  0  0  0  0  0  0  0
  -29.2177   -0.6429   28.1747 C   0  0  0  0  0  0  0  0  0  0  0  0
  -28.2275   -1.6261   30.1018 C   0  0  0  0  0  0  0  0  0  0  0  0
  -27.2436   -2.2421   30.4709 O   0  0  0  0  0  0  0  0  0  0  0  0
  -29.3884   -2.0581   30.4800 O   0  0  0  0  0  0  0  0  0  0  0  0
  -30.3268    0.2430   26.0041 C   0  0  0  0  0  0  0  0  0  0  0  0
  -30.2056    0.5705   24.8689 N   0  0  0  0  0  0  0  0  0  0  0  0
  1  7  1  0
  7  8  2  0
  7  9  1  0
  5 10  1  0
 10 11  2  0
  1  2  2  0
  2  3  1  0
  3  4  2  0
  4  5  1  0
  5  6  2  0
  6  1  1  0
M  END

$$$$
