No_33-gen_results/8p0m/2024-11-27-11-27-31/
     RDKit          3D

 27 30  0  0  0  0  0  0  0  0999 V2000
  -28.0162   -0.8135   28.8779 C   0  0  0  0  0  0  0  0  0  0  0  0
  -27.0636   -0.1189   28.6079 C   0  0  0  0  0  0  0  0  0  0  0  0
  -26.9716    0.7139   27.5060 C   0  0  0  0  0  0  0  0  0  0  0  0
  -25.8205    1.4910   27.1160 C   0  0  0  0  0  0  0  0  0  0  0  0
  -24.6562    1.4242   27.9180 C   0  0  0  0  0  0  0  0  0  0  0  0
  -24.7114    0.5419   29.0507 C   0  0  0  0  0  0  0  0  0  0  0  0
  -25.8042   -0.2058   29.3881 C   0  0  0  0  0  0  0  0  0  0  0  0
  -28.0309   -1.5903   30.1490 C   0  0  0  0  0  0  0  0  0  0  0  0
  -26.8104   -1.7964   30.8511 C   0  0  0  0  0  0  0  0  0  0  0  0
  -25.6958   -1.0684   30.5035 C   0  0  0  0  0  0  0  0  0  0  0  0
  -28.0906    0.8797   26.5377 C   0  0  0  0  0  0  0  0  0  0  0  0
  -27.9741    1.0303   25.2685 C   0  0  0  0  0  0  0  0  0  0  0  0
  -29.1126    1.0685   24.4713 C   0  0  0  0  0  0  0  0  0  0  0  0
  -30.3621    0.8608   24.9609 C   0  0  0  0  0  0  0  0  0  0  0  0
  -30.4802    0.6378   26.3080 C   0  0  0  0  0  0  0  0  0  0  0  0
  -29.4255    0.6400   27.1351 C   0  0  0  0  0  0  0  0  0  0  0  0
  -23.3799    0.4693   29.8075 C   0  0  0  0  0  0  0  0  0  0  0  0
  -22.4836    1.0610   29.1936 F   0  0  0  0  0  0  0  0  0  0  0  0
  -23.1104   -0.8502   29.9285 F   0  0  0  0  0  0  0  0  0  0  0  0
  -23.5670    0.9667   31.0554 F   0  0  0  0  0  0  0  0  0  0  0  0
  -31.8671    0.4519   26.8347 C   0  0  0  0  0  0  0  0  0  0  0  0
  -32.5335   -0.4552   26.6103 O   0  0  0  0  0  0  0  0  0  0  0  0
  -32.2684    1.3836   27.8341 N   0  0  0  0  0  0  0  0  0  0  0  0
  -33.2000    1.5415   28.4021 C   0  0  0  0  0  0  0  0  0  0  0  0
  -33.2864    2.4018   29.2758 C   0  0  0  0  0  0  0  0  0  0  0  0
  -32.0846    3.1301   29.3424 C   0  0  0  0  0  0  0  0  0  0  0  0
  -31.3472    2.4389   28.4875 C   0  0  0  0  0  0  0  0  0  0  0  0
  3 11  1  0
  6 17  1  0
 17 18  1  0
 17 19  1  0
 17 20  1  0
 15 21  1  0
 21 22  2  0
 21 23  1  0
 23 24  1  0
 24 25  2  0
 25 26  1  0
 23 27  1  0
 26 27  2  0
 11 12  2  0
 12 13  1  0
 13 14  2  0
 14 15  1  0
 15 16  2  0
 16 11  1  0
  2  3  1  0
  3  4  2  0
  4  5  1  0
  5  6  2  0
  6  7  1  0
  1  2  2  0
  2  7  1  0
  7 10  2  0
 10  9  1  0
  9  8  2  0
  8  1  1  0
M  END

$$$$
