No_3867-gen_results/8p0m/2024-11-27-11-27-31/
     RDKit          3D

 21 23  0  0  0  0  0  0  0  0999 V2000
  -28.0162   -0.8135   28.8779 C   0  0  0  0  0  0  0  0  0  0  0  0
  -27.0636   -0.1190   28.6079 C   0  0  0  0  0  0  0  0  0  0  0  0
  -26.9287    1.1713   29.0083 C   0  0  0  0  0  0  0  0  0  0  0  0
  -25.7702    2.0341   28.6884 C   0  0  0  0  0  0  0  0  0  0  0  0
  -24.7141    1.4431   27.9188 C   0  0  0  0  0  0  0  0  0  0  0  0
  -24.8590    0.0783   27.5836 C   0  0  0  0  0  0  0  0  0  0  0  0
  -25.9647   -0.6606   27.9164 C   0  0  0  0  0  0  0  0  0  0  0  0
  -29.1701   -0.2984   28.9471 N   0  0  0  0  0  0  0  0  0  0  0  0
  -30.1841   -0.8920   29.7048 C   0  0  0  0  0  0  0  0  0  0  0  0
  -23.5181    2.1583   27.5785 C   0  0  0  0  0  0  0  0  0  0  0  0
  -23.1819    2.8176   28.3997 F   0  0  0  0  0  0  0  0  0  0  0  0
  -23.0430    2.0144   26.4024 F   0  0  0  0  0  0  0  0  0  0  0  0
  -29.8627   -2.0673   30.3649 C   0  0  0  0  0  0  0  0  0  0  0  0
  -28.6046   -2.6132   30.4097 C   0  0  0  0  0  0  0  0  0  0  0  0
  -27.6308   -1.9023   29.8343 C   0  0  0  0  0  0  0  0  0  0  0  0
  -29.5303    0.7930   28.1506 C   0  0  0  0  0  0  0  0  0  0  0  0
  -29.5758    0.5691   26.7959 C   0  0  0  0  0  0  0  0  0  0  0  0
  -29.3149    1.5234   25.8917 C   0  0  0  0  0  0  0  0  0  0  0  0
  -29.4199    2.8938   26.3311 C   0  0  0  0  0  0  0  0  0  0  0  0
  -29.6046    3.1905   27.6809 C   0  0  0  0  0  0  0  0  0  0  0  0
  -29.5275    2.1474   28.5896 C   0  0  0  0  0  0  0  0  0  0  0  0
  1  2  1  0
  1  8  1  0
  8  9  1  0
  5 10  1  0
 10 11  1  0
 10 12  1  0
 13 14  1  0
  1 15  1  0
 14 15  1  0
  8 16  1  0
 13  9  1  0
  2  3  2  0
  3  4  1  0
  4  5  2  0
  5  6  1  0
  6  7  2  0
  7  2  1  0
 16 17  2  0
 17 18  1  0
 18 19  2  0
 19 20  1  0
 20 21  2  0
 21 16  1  0
M  END

$$$$
