No_3305-gen_results/8p0m/2024-11-27-11-27-31/
     RDKit          3D

 12 13  0  0  0  0  0  0  0  0999 V2000
  -28.0162   -0.8135   28.8779 C   0  0  0  0  0  0  0  0  0  0  0  0
  -27.0636   -0.1190   28.6079 C   0  0  0  0  0  0  0  0  0  0  0  0
  -27.0010    0.6913   27.4910 C   0  0  0  0  0  0  0  0  0  0  0  0
  -28.1373    0.7363   26.6350 C   0  0  0  0  0  0  0  0  0  0  0  0
  -29.2360    0.0765   27.0690 C   0  0  0  0  0  0  0  0  0  0  0  0
  -29.2177   -0.6429   28.1747 C   0  0  0  0  0  0  0  0  0  0  0  0
  -30.3516    0.1564   26.2430 N   0  0  0  0  0  0  0  0  0  0  0  0
  -31.0938    1.0560   26.0906 C   0  0  0  0  0  0  0  0  0  0  0  0
  -32.2092    0.9924   25.1737 C   0  0  0  0  0  0  0  0  0  0  0  0
  -30.6881   -0.9897   25.4325 C   0  0  0  0  0  0  0  0  0  0  0  0
  -31.6126   -0.9823   24.6528 C   0  0  0  0  0  0  0  0  0  0  0  0
  -32.4648   -0.0052   24.4659 C   0  0  0  0  0  0  0  0  0  0  0  0
  5  7  1  0
  7  8  1  0
  7 10  1  0
  9 12  1  0
 11 12  1  0
  8  9  1  0
 11 10  1  0
  1  2  2  0
  2  3  1  0
  3  4  2  0
  4  5  1  0
  5  6  2  0
  6  1  1  0
M  END

$$$$
