No_3870-gen_results/8p0m/2024-11-27-11-27-31/
     RDKit          3D

 10 10  0  0  0  0  0  0  0  0999 V2000
  -28.1229   -1.3353   28.4874 O   0  0  0  0  0  0  0  0  0  0  0  0
  -27.0637   -0.8242   28.8687 C   0  0  0  0  0  0  0  0  0  0  0  0
  -25.9464   -1.0396   28.8492 C   0  0  0  0  0  0  0  0  0  0  0  0
  -25.3522   -2.2524   28.5471 C   0  0  0  0  0  0  0  0  0  0  0  0
  -27.3027    0.5539   29.4791 O   0  0  0  0  0  0  0  0  0  0  0  0
  -24.5460   -2.8955   29.4863 C   0  0  0  0  0  0  0  0  0  0  0  0
  -23.6135   -2.0149   30.2026 C   0  0  0  0  0  0  0  0  0  0  0  0
  -24.0130   -0.6745   30.4767 C   0  0  0  0  0  0  0  0  0  0  0  0
  -25.1685   -0.2276   29.8025 C   0  0  0  0  0  0  0  0  0  0  0  0
  -28.8244    0.7370   29.3688 C   0  0  0  0  0  0  0  0  0  0  0  0
  1  2  2  0
  2  3  1  0
  2  5  1  0
  5 10  1  0
  3  4  2  0
  4  6  1  0
  6  7  2  0
  7  8  1  0
  8  9  2  0
  9  3  1  0
M  END

$$$$
