No_3927-gen_results/8p0m/2024-11-27-11-27-31/
     RDKit          3D

  8  7  0  0  0  0  0  0  0  0999 V2000
  -28.0727   -1.2542   28.5316 F   0  0  0  0  0  0  0  0  0  0  0  0
  -27.3591   -0.3792   28.7224 C   0  0  0  0  0  0  0  0  0  0  0  0
  -26.3180   -0.6608   29.1159 F   0  0  0  0  0  0  0  0  0  0  0  0
  -27.9301    0.6892   29.6024 C   0  0  0  0  0  0  0  0  0  0  0  0
  -27.1336    0.2903   27.5045 F   0  0  0  0  0  0  0  0  0  0  0  0
  -27.2797    1.6419   29.5856 F   0  0  0  0  0  0  0  0  0  0  0  0
  -29.1796    0.9883   29.2248 F   0  0  0  0  0  0  0  0  0  0  0  0
  -27.9780    0.1325   30.8395 F   0  0  0  0  0  0  0  0  0  0  0  0
  1  2  1  0
  2  3  1  0
  2  4  1  0
  2  5  1  0
  4  6  1  0
  4  7  1  0
  4  8  1  0
M  END

$$$$
