No_3088-gen_results/8p0m/2024-11-27-11-27-31/
     RDKit          3D

 30 33  0  0  0  0  0  0  0  0999 V2000
  -28.0162   -0.8135   28.8779 C   0  0  0  0  0  0  0  0  0  0  0  0
  -27.0636   -0.1190   28.6079 C   0  0  0  0  0  0  0  0  0  0  0  0
  -26.9716    0.7139   27.5060 C   0  0  0  0  0  0  0  0  0  0  0  0
  -25.8205    1.4909   27.1160 C   0  0  0  0  0  0  0  0  0  0  0  0
  -24.6562    1.4242   27.9180 C   0  0  0  0  0  0  0  0  0  0  0  0
  -24.6847    0.5901   29.0659 C   0  0  0  0  0  0  0  0  0  0  0  0
  -25.8099   -0.1266   29.3338 C   0  0  0  0  0  0  0  0  0  0  0  0
  -28.7097   -0.5805   30.0246 N   0  0  0  0  0  0  0  0  0  0  0  0
  -23.4637    2.1746   27.6094 C   0  0  0  0  0  0  0  0  0  0  0  0
  -22.5062    2.2027   28.5118 N   0  0  0  0  0  0  0  0  0  0  0  0
  -23.1782    2.4582   26.3751 O   0  0  0  0  0  0  0  0  0  0  0  0
  -29.8068   -1.3476   30.4858 C   0  0  0  0  0  0  0  0  0  0  0  0
  -30.3654   -1.0581   31.7201 C   0  0  0  0  0  0  0  0  0  0  0  0
  -28.4484    0.5063   30.9223 C   0  0  0  0  0  0  0  0  0  0  0  0
  -28.9906    0.7733   32.0843 C   0  0  0  0  0  0  0  0  0  0  0  0
  -30.0184   -0.0043   32.5152 C   0  0  0  0  0  0  0  0  0  0  0  0
  -28.1007    0.8289   26.5957 C   0  0  0  0  0  0  0  0  0  0  0  0
  -28.1201    0.6676   25.4644 O   0  0  0  0  0  0  0  0  0  0  0  0
  -29.2291    1.3828   27.1251 N   0  0  0  0  0  0  0  0  0  0  0  0
  -30.4924    1.5357   26.4213 C   0  0  0  0  0  0  0  0  0  0  0  0
  -31.5242    1.6070   27.2525 C   0  0  0  0  0  0  0  0  0  0  0  0
  -31.3153    1.8791   28.5771 C   0  0  0  0  0  0  0  0  0  0  0  0
  -30.0801    1.9002   29.2278 C   0  0  0  0  0  0  0  0  0  0  0  0
  -29.0883    1.6138   28.5448 C   0  0  0  0  0  0  0  0  0  0  0  0
  -28.5172    3.2080   28.6703 C   0  0  0  0  0  0  0  0  0  0  0  0
  -29.2684    4.1582   28.9396 C   0  0  0  0  0  0  0  0  0  0  0  0
  -28.8167    5.3750   28.7664 C   0  0  0  0  0  0  0  0  0  0  0  0
  -27.4639    5.6731   28.4283 C   0  0  0  0  0  0  0  0  0  0  0  0
  -26.6304    4.6185   28.0511 C   0  0  0  0  0  0  0  0  0  0  0  0
  -27.1420    3.3741   28.1623 C   0  0  0  0  0  0  0  0  0  0  0  0
  1  8  1  0
  5  9  1  0
  9 10  1  0
  9 11  2  0
  8 12  1  0
  8 14  1  0
 13 16  1  0
 15 16  1  0
  3 17  1  0
 17 18  2  0
 17 19  1  0
 19 20  1  0
 20 21  1  0
 22 23  1  0
 19 24  1  0
 23 24  1  0
 24 25  1  0
  1  2  1  0
 12 13  1  0
 15 14  1  0
 21 22  1  0
  2  3  1  0
  3  4  2  0
  4  5  1  0
  5  6  2  0
  6  7  1  0
  7  2  2  0
 25 26  2  0
 26 27  1  0
 27 28  2  0
 28 29  1  0
 29 30  2  0
 30 25  1  0
M  END

$$$$
