No_3905-gen_results/8p0m/2024-11-27-11-27-31/
     RDKit          3D

 13 13  0  0  0  0  0  0  0  0999 V2000
  -28.0162   -0.8135   28.8779 C   0  0  0  0  0  0  0  0  0  0  0  0
  -27.0636   -0.1190   28.6079 C   0  0  0  0  0  0  0  0  0  0  0  0
  -25.7647   -0.3897   29.0360 C   0  0  0  0  0  0  0  0  0  0  0  0
  -24.5516    0.4058   28.7646 C   0  0  0  0  0  0  0  0  0  0  0  0
  -24.6957    1.4480   27.7988 C   0  0  0  0  0  0  0  0  0  0  0  0
  -25.9755    1.7250   27.3077 C   0  0  0  0  0  0  0  0  0  0  0  0
  -27.1888    1.1181   27.8544 C   0  0  0  0  0  0  0  0  0  0  0  0
  -28.5896   -0.5415   30.2390 C   0  0  0  0  0  0  0  0  0  0  0  0
  -29.5154   -1.4654   30.5763 F   0  0  0  0  0  0  0  0  0  0  0  0
  -29.2843    0.6076   30.4034 F   0  0  0  0  0  0  0  0  0  0  0  0
  -27.8527   -0.9081   31.2486 F   0  0  0  0  0  0  0  0  0  0  0  0
  -23.5322    2.2292   27.4879 C   0  0  0  0  0  0  0  0  0  0  0  0
  -23.6463    3.1556   26.6717 O   0  0  0  0  0  0  0  0  0  0  0  0
  1  2  2  3
  2  3  1  0
  3  4  1  0
  4  5  1  0
  5  6  1  0
  2  7  1  0
  6  7  1  0
  1  8  1  0
  8  9  1  0
  8 10  1  0
  8 11  1  0
  5 12  1  0
 12 13  2  0
M  END

$$$$
