No_387-gen_results/8p0m/2024-11-27-11-27-31/
     RDKit          3D

 31 34  0  0  0  0  0  0  0  0999 V2000
  -28.0162   -0.8135   28.8779 C   0  0  0  0  0  0  0  0  0  0  0  0
  -27.0636   -0.1190   28.6079 C   0  0  0  0  0  0  0  0  0  0  0  0
  -26.9716    0.7139   27.5060 C   0  0  0  0  0  0  0  0  0  0  0  0
  -25.8205    1.4909   27.1160 C   0  0  0  0  0  0  0  0  0  0  0  0
  -24.6562    1.4242   27.9180 C   0  0  0  0  0  0  0  0  0  0  0  0
  -24.7114    0.5419   29.0507 C   0  0  0  0  0  0  0  0  0  0  0  0
  -25.8042   -0.2058   29.3881 C   0  0  0  0  0  0  0  0  0  0  0  0
  -28.6958   -0.4989   30.1325 C   0  0  0  0  0  0  0  0  0  0  0  0
  -28.5578    0.6415   30.6300 C   0  0  0  0  0  0  0  0  0  0  0  0
  -29.3225    0.9934   31.9059 C   0  0  0  0  0  0  0  0  0  0  0  0
  -29.1877    2.2667   32.5188 C   0  0  0  0  0  0  0  0  0  0  0  0
  -28.2884    3.1946   31.8697 C   0  0  0  0  0  0  0  0  0  0  0  0
  -27.5257    2.8446   30.7577 C   0  0  0  0  0  0  0  0  0  0  0  0
  -27.6266    1.6228   30.2333 C   0  0  0  0  0  0  0  0  0  0  0  0
  -23.4007    2.0509   27.5257 C   0  0  0  0  0  0  0  0  0  0  0  0
  -23.2613    2.5972   26.4101 O   0  0  0  0  0  0  0  0  0  0  0  0
  -22.3637    2.0584   28.3434 O   0  0  0  0  0  0  0  0  0  0  0  0
  -26.5609    3.9019   30.2835 C   0  0  0  0  0  0  0  0  0  0  0  0
  -27.1331    5.0920   29.9256 C   0  0  0  0  0  0  0  0  0  0  0  0
  -27.0592    5.5313   28.9048 C   0  0  0  0  0  0  0  0  0  0  0  0
  -25.8693    5.1653   28.0296 C   0  0  0  0  0  0  0  0  0  0  0  0
  -25.6471    5.7371   26.7725 C   0  0  0  0  0  0  0  0  0  0  0  0
  -28.1184    0.9294   26.6066 C   0  0  0  0  0  0  0  0  0  0  0  0
  -28.0647    1.2004   25.4609 O   0  0  0  0  0  0  0  0  0  0  0  0
  -29.3001    0.7616   27.1767 F   0  0  0  0  0  0  0  0  0  0  0  0
  -24.2830    5.5478   26.3174 C   0  0  0  0  0  0  0  0  0  0  0  0
  -25.8742    3.4567   29.0697 C   0  0  0  0  0  0  0  0  0  0  0  0
  -24.8131    3.5768   29.3020 O   0  0  0  0  0  0  0  0  0  0  0  0
  -26.6687    2.9739   28.3062 O   0  0  0  0  0  0  0  0  0  0  0  0
  -24.8818    4.4254   28.1670 C   0  0  0  0  0  0  0  0  0  0  0  0
  -23.9367    4.6547   27.3679 C   0  0  0  0  0  0  0  0  0  0  0  0
  1  8  1  0
  5 15  1  0
 15 16  2  0
 15 17  1  0
 13 18  1  0
 18 19  1  0
 19 20  2  0
 20 21  1  0
 21 22  1  0
  3 23  1  0
 23 24  2  0
 23 25  1  0
 22 26  2  0
 18 27  1  0
 27 28  1  0
 27 29  2  0
 21 30  1  0
 28 30  1  0
 26 31  1  0
 30 31  1  0
  1  2  1  0
  8  9  1  0
  2  3  2  0
  3  4  1  0
  4  5  2  0
  5  6  1  0
  6  7  2  0
  7  2  1  0
  9 10  2  0
 10 11  1  0
 11 12  2  0
 12 13  1  0
 13 14  2  0
 14  9  1  0
M  END

$$$$
