No_3318-gen_results/8p0m/2024-11-27-11-27-31/
     RDKit          3D

 25 27  0  0  0  0  0  0  0  0999 V2000
  -28.0162   -0.8135   28.8779 C   0  0  0  0  0  0  0  0  0  0  0  0
  -27.0636   -0.1190   28.6079 C   0  0  0  0  0  0  0  0  0  0  0  0
  -25.7647   -0.3897   29.0360 C   0  0  0  0  0  0  0  0  0  0  0  0
  -25.5296   -1.5302   29.9014 C   0  0  0  0  0  0  0  0  0  0  0  0
  -26.6577   -2.2915   30.2035 C   0  0  0  0  0  0  0  0  0  0  0  0
  -27.8548   -1.9555   29.7630 C   0  0  0  0  0  0  0  0  0  0  0  0
  -24.6989    0.3589   28.7784 F   0  0  0  0  0  0  0  0  0  0  0  0
  -29.1238   -2.6729   30.1402 C   0  0  0  0  0  0  0  0  0  0  0  0
  -29.1136   -3.8267   30.3979 O   0  0  0  0  0  0  0  0  0  0  0  0
  -30.2329   -2.0048   30.2338 N   0  0  0  0  0  0  0  0  0  0  0  0
  -31.4851   -2.6285   30.5929 C   0  0  0  0  0  0  0  0  0  0  0  0
  -32.4299   -1.8404   30.8626 C   0  0  0  0  0  0  0  0  0  0  0  0
  -33.4598   -2.0654   31.4274 C   0  0  0  0  0  0  0  0  0  0  0  0
  -34.5052   -1.1288   31.7726 C   0  0  0  0  0  0  0  0  0  0  0  0
  -34.3113    0.1860   31.3216 C   0  0  0  0  0  0  0  0  0  0  0  0
  -33.2016    0.5361   30.6329 C   0  0  0  0  0  0  0  0  0  0  0  0
  -32.2326   -0.3754   30.4172 C   0  0  0  0  0  0  0  0  0  0  0  0
  -32.9454    2.1758   30.1655 Cl  0  0  0  0  0  0  0  0  0  0  0  0
  -31.5464   -3.8011   30.4865 O   0  0  0  0  0  0  0  0  0  0  0  0
  -27.1678    1.1054   27.6846 C   0  0  0  0  0  0  0  0  0  0  0  0
  -27.4012    0.7876   26.3084 C   0  0  0  0  0  0  0  0  0  0  0  0
  -27.3113    1.7471   25.4248 C   0  0  0  0  0  0  0  0  0  0  0  0
  -27.1158    3.1427   25.8149 C   0  0  0  0  0  0  0  0  0  0  0  0
  -26.8730    3.4314   27.1655 C   0  0  0  0  0  0  0  0  0  0  0  0
  -26.8394    2.4145   28.0708 C   0  0  0  0  0  0  0  0  0  0  0  0
  3  7  1  0
  6  8  1  0
  8  9  2  0
  8 10  1  0
 10 11  1  0
 11 12  1  0
 16 18  1  0
 11 19  2  0
  2 20  1  0
 12 13  2  0
 13 14  1  0
 14 15  2  0
 15 16  1  0
 16 17  2  0
 17 12  1  0
  1  2  2  0
  2  3  1  0
  3  4  2  0
  4  5  1  0
  5  6  2  0
  6  1  1  0
 20 21  2  0
 21 22  1  0
 22 23  2  0
 23 24  1  0
 24 25  2  0
 25 20  1  0
M  END

$$$$
