No_3854-gen_results/8p0m/2024-11-27-11-27-31/
     RDKit          3D

 35 39  0  0  0  0  0  0  0  0999 V2000
  -28.0162   -0.8135   28.8779 C   0  0  0  0  0  0  0  0  0  0  0  0
  -27.0636   -0.1189   28.6079 C   0  0  0  0  0  0  0  0  0  0  0  0
  -27.0010    0.6913   27.4910 C   0  0  0  0  0  0  0  0  0  0  0  0
  -25.8548    1.4825   27.0830 C   0  0  0  0  0  0  0  0  0  0  0  0
  -25.8227    2.3296   25.9941 C   0  0  0  0  0  0  0  0  0  0  0  0
  -29.2749   -0.4841   28.3563 C   0  0  0  0  0  0  0  0  0  0  0  0
  -29.3535    0.3686   27.3239 C   0  0  0  0  0  0  0  0  0  0  0  0
  -28.2055    1.0839   26.8491 C   0  0  0  0  0  0  0  0  0  0  0  0
  -27.0690    2.6247   25.3710 C   0  0  0  0  0  0  0  0  0  0  0  0
  -28.2250    2.0082   25.7937 C   0  0  0  0  0  0  0  0  0  0  0  0
  -27.9619   -1.7034   29.9367 F   0  0  0  0  0  0  0  0  0  0  0  0
  -24.4974    1.1614   27.6783 C   0  0  0  0  0  0  0  0  0  0  0  0
  -24.1231    1.9894   28.7999 C   0  0  0  0  0  0  0  0  0  0  0  0
  -22.8644    1.7092   29.4144 C   0  0  0  0  0  0  0  0  0  0  0  0
  -22.1392    0.5382   29.0095 C   0  0  0  0  0  0  0  0  0  0  0  0
  -22.6382   -0.4226   28.5461 C   0  0  0  0  0  0  0  0  0  0  0  0
  -23.8903   -0.1269   27.6565 C   0  0  0  0  0  0  0  0  0  0  0  0
  -29.4649    2.2793   25.0613 C   0  0  0  0  0  0  0  0  0  0  0  0
  -29.9327    3.4810   25.4951 C   0  0  0  0  0  0  0  0  0  0  0  0
  -31.0137    3.6387   26.2428 C   0  0  0  0  0  0  0  0  0  0  0  0
  -31.4973    4.9456   26.6470 C   0  0  0  0  0  0  0  0  0  0  0  0
  -30.6749    6.0153   26.5845 C   0  0  0  0  0  0  0  0  0  0  0  0
  -29.4427    5.9266   25.8902 C   0  0  0  0  0  0  0  0  0  0  0  0
  -29.0194    4.6755   25.3991 C   0  0  0  0  0  0  0  0  0  0  0  0
  -29.9898    1.5505   24.1370 C   0  0  0  0  0  0  0  0  0  0  0  0
  -24.6600    3.1779   28.9204 O   0  0  0  0  0  0  0  0  0  0  0  0
  -25.2860    3.8236   29.6959 C   0  0  0  0  0  0  0  0  0  0  0  0
  -25.8795    5.0742   29.3571 C   0  0  0  0  0  0  0  0  0  0  0  0
  -26.4971    5.7737   30.3102 C   0  0  0  0  0  0  0  0  0  0  0  0
  -25.7154    3.2553   30.9217 C   0  0  0  0  0  0  0  0  0  0  0  0
  -26.4577    3.9497   31.8745 C   0  0  0  0  0  0  0  0  0  0  0  0
  -26.8687    5.2578   31.5705 C   0  0  0  0  0  0  0  0  0  0  0  0
  -25.8561    5.7046   28.2652 O   0  0  0  0  0  0  0  0  0  0  0  0
  -26.0239    6.9918   28.0669 C   0  0  0  0  0  0  0  0  0  0  0  0
  -26.6841    7.6464   28.9032 C   0  0  0  0  0  0  0  0  0  0  0  0
  1 11  1  0
  4 12  1  0
 10 18  1  0
 18 19  1  0
 18 25  1  0
 13 26  1  0
 26 27  1  0
 28 33  1  0
 33 34  1  0
 34 35  2  0
 12 13  1  0
 13 14  2  0
 14 15  1  0
 15 16  2  0
 16 17  1  0
 17 12  2  0
  3  4  2  0
  4  5  1  0
  5  9  2  0
  9 10  1  0
 10  8  2  0
  1  2  2  0
  2  3  1  0
  3  8  1  0
  8  7  1  0
  7  6  2  0
  6  1  1  0
 19 20  2  0
 20 21  1  0
 21 22  2  0
 22 23  1  0
 23 24  2  0
 24 19  1  0
 27 28  2  0
 28 29  1  0
 29 32  2  0
 32 31  1  0
 31 30  2  0
 30 27  1  0
M  END

$$$$
