No_3591-gen_results/8p0m/2024-11-27-11-27-31/
     RDKit          3D

 29 31  0  0  0  0  0  0  0  0999 V2000
  -28.0162   -0.8135   28.8779 C   0  0  0  0  0  0  0  0  0  0  0  0
  -27.0636   -0.1189   28.6079 C   0  0  0  0  0  0  0  0  0  0  0  0
  -25.7923   -0.4302   29.0761 C   0  0  0  0  0  0  0  0  0  0  0  0
  -24.5456    0.3494   28.8225 C   0  0  0  0  0  0  0  0  0  0  0  0
  -24.6586    1.4196   27.8878 C   0  0  0  0  0  0  0  0  0  0  0  0
  -25.9471    1.6811   27.3792 C   0  0  0  0  0  0  0  0  0  0  0  0
  -27.0439    0.9739   27.6871 C   0  0  0  0  0  0  0  0  0  0  0  0
  -28.0241   -1.6475   30.1262 C   0  0  0  0  0  0  0  0  0  0  0  0
  -26.7278   -2.0846   30.5807 C   0  0  0  0  0  0  0  0  0  0  0  0
  -25.5915   -1.4064   30.1489 C   0  0  0  0  0  0  0  0  0  0  0  0
  -23.4486    2.1675   27.5241 C   0  0  0  0  0  0  0  0  0  0  0  0
  -22.2409    1.6191   27.7590 N   0  0  0  0  0  0  0  0  0  0  0  0
  -23.5970    3.2400   26.8890 O   0  0  0  0  0  0  0  0  0  0  0  0
  -29.1604   -2.4713   30.5351 C   0  0  0  0  0  0  0  0  0  0  0  0
  -29.1529   -3.6426   30.7829 O   0  0  0  0  0  0  0  0  0  0  0  0
  -30.1950   -1.6988   31.0361 N   0  0  0  0  0  0  0  0  0  0  0  0
  -31.4026   -2.3685   31.5839 C   0  0  0  0  0  0  0  0  0  0  0  0
  -28.3392    1.3619   27.0483 C   0  0  0  0  0  0  0  0  0  0  0  0
  -29.0204    2.3589   27.6582 C   0  0  0  0  0  0  0  0  0  0  0  0
  -30.3456    2.6585   27.2370 C   0  0  0  0  0  0  0  0  0  0  0  0
  -28.7498    0.7450   25.9228 C   0  0  0  0  0  0  0  0  0  0  0  0
  -30.0313    1.0056   25.4237 C   0  0  0  0  0  0  0  0  0  0  0  0
  -30.7797    2.0422   26.0412 C   0  0  0  0  0  0  0  0  0  0  0  0
  -30.3143   -0.2504   30.9455 C   0  0  0  0  0  0  0  0  0  0  0  0
  -30.2576    0.4141   32.2184 C   0  0  0  0  0  0  0  0  0  0  0  0
  -30.0359    1.7293   32.1315 C   0  0  0  0  0  0  0  0  0  0  0  0
  -29.8236    2.5232   33.3271 C   0  0  0  0  0  0  0  0  0  0  0  0
  -29.4883    3.8958   33.3005 C   0  0  0  0  0  0  0  0  0  0  0  0
  -29.2300    4.6297   34.4235 C   0  0  0  0  0  0  0  0  0  0  0  0
  5 11  1  0
 11 12  1  0
 11 13  2  0
  8 14  1  0
 14 15  2  0
 14 16  1  0
 16 17  1  0
  7 18  1  0
 16 24  1  0
 24 25  1  0
 25 26  2  3
 26 27  1  0
 27 28  2  3
 28 29  1  0
  3  4  1  0
  4  5  2  0
  5  6  1  0
  6  7  2  0
  7  2  1  0
  1  2  2  0
  2  3  1  0
  3 10  2  0
 10  9  1  0
  9  8  2  0
  8  1  1  0
 18 19  2  0
 19 20  1  0
 20 23  2  0
 23 22  1  0
 22 21  2  0
 21 18  1  0
M  END

$$$$
