No_367-gen_results/8p0m/2024-11-27-11-27-31/
     RDKit          3D

 32 35  0  0  0  0  0  0  0  0999 V2000
  -28.0162   -0.8135   28.8779 C   0  0  0  0  0  0  0  0  0  0  0  0
  -28.4690   -0.7850   29.8287 C   0  0  0  0  0  0  0  0  0  0  0  0
  -28.1960    0.3478   28.0550 C   0  0  0  0  0  0  0  0  0  0  0  0
  -27.4421    0.5100   26.7946 C   0  0  0  0  0  0  0  0  0  0  0  0
  -27.8427    1.3330   25.8056 C   0  0  0  0  0  0  0  0  0  0  0  0
  -29.4716    0.1210   30.3515 C   0  0  0  0  0  0  0  0  0  0  0  0
  -29.7075    1.1848   29.5963 C   0  0  0  0  0  0  0  0  0  0  0  0
  -29.0356    1.3672   28.4021 C   0  0  0  0  0  0  0  0  0  0  0  0
  -28.8078    2.3943   26.1524 C   0  0  0  0  0  0  0  0  0  0  0  0
  -29.3448    2.3671   27.4295 C   0  0  0  0  0  0  0  0  0  0  0  0
  -26.5012   -0.4116   26.4208 O   0  0  0  0  0  0  0  0  0  0  0  0
  -25.1113    0.1099   26.6704 C   0  0  0  0  0  0  0  0  0  0  0  0
  -24.6951    0.9232   25.7756 C   0  0  0  0  0  0  0  0  0  0  0  0
  -24.4215   -0.3942   27.8012 C   0  0  0  0  0  0  0  0  0  0  0  0
  -23.1634    0.1196   28.0563 C   0  0  0  0  0  0  0  0  0  0  0  0
  -23.3835    1.5346   26.0370 C   0  0  0  0  0  0  0  0  0  0  0  0
  -22.6729    1.1667   27.2461 C   0  0  0  0  0  0  0  0  0  0  0  0
  -22.4332   -0.2014   29.2553 C   0  0  0  0  0  0  0  0  0  0  0  0
  -23.0042   -0.3939   30.3880 N   0  0  0  0  0  0  0  0  0  0  0  0
  -21.1697   -0.4640   29.0890 O   0  0  0  0  0  0  0  0  0  0  0  0
  -24.3583   -0.0206   30.7700 C   0  0  0  0  0  0  0  0  0  0  0  0
  -24.6159    1.0714   31.6010 C   0  0  0  0  0  0  0  0  0  0  0  0
  -24.9443    2.1551   31.2362 C   0  0  0  0  0  0  0  0  0  0  0  0
  -25.2103    3.2936   32.1093 C   0  0  0  0  0  0  0  0  0  0  0  0
  -25.1506    4.6386   31.7006 C   0  0  0  0  0  0  0  0  0  0  0  0
  -25.5524    4.9439   30.3836 C   0  0  0  0  0  0  0  0  0  0  0  0
  -25.5642    3.8153   29.4691 C   0  0  0  0  0  0  0  0  0  0  0  0
  -25.2481    2.5033   29.8552 C   0  0  0  0  0  0  0  0  0  0  0  0
  -25.8798    4.1000   28.0385 C   0  0  0  0  0  0  0  0  0  0  0  0
  -25.5170    3.4084   27.2469 O   0  0  0  0  0  0  0  0  0  0  0  0
  -26.9198    5.0122   27.8504 N   0  0  0  0  0  0  0  0  0  0  0  0
  -27.2947    5.3243   26.4614 C   0  0  0  0  0  0  0  0  0  0  0  0
  4 11  1  0
 11 12  1  0
 15 18  1  0
 18 19  1  0
 18 20  2  0
 19 21  1  0
 21 22  1  0
 22 23  1  0
 27 29  1  0
 29 30  2  0
 29 31  1  0
 31 32  1  0
 23 24  2  0
 24 25  1  0
 25 26  2  0
 26 27  1  0
 27 28  2  0
 28 23  1  0
  3  4  2  0
  4  5  1  0
  5  9  2  0
  9 10  1  0
 10  8  2  0
  1  2  2  0
  2  6  1  0
  6  7  2  0
  7  8  1  0
  8  3  1  0
  3  1  1  0
 12 13  2  0
 13 16  1  0
 16 17  2  0
 17 15  1  0
 15 14  2  0
 14 12  1  0
M  END

$$$$
