No_3129-gen_results/8p0m/2024-11-27-11-27-31/
     RDKit          3D

 13 13  0  0  0  0  0  0  0  0999 V2000
  -28.0162   -0.8135   28.8779 C   0  0  0  0  0  0  0  0  0  0  0  0
  -28.4690   -0.7850   29.8287 C   0  0  0  0  0  0  0  0  0  0  0  0
  -27.1356    0.2359   28.5352 C   0  0  0  0  0  0  0  0  0  0  0  0
  -26.8745    1.2825   29.3982 C   0  0  0  0  0  0  0  0  0  0  0  0
  -28.3613    0.1987   30.9244 C   0  0  0  0  0  0  0  0  0  0  0  0
  -27.5277    1.2234   30.6356 C   0  0  0  0  0  0  0  0  0  0  0  0
  -26.3987    0.2949   27.2279 C   0  0  0  0  0  0  0  0  0  0  0  0
  -25.4359   -0.3066   27.2689 F   0  0  0  0  0  0  0  0  0  0  0  0
  -27.2424   -0.2160   26.2518 F   0  0  0  0  0  0  0  0  0  0  0  0
  -26.0737    1.5697   26.7857 F   0  0  0  0  0  0  0  0  0  0  0  0
  -29.3983   -2.0023   30.3280 C   0  0  0  0  0  0  0  0  0  0  0  0
  -28.9857   -3.1351   30.3946 O   0  0  0  0  0  0  0  0  0  0  0  0
  -30.6935   -1.8257   30.3502 O   0  0  0  0  0  0  0  0  0  0  0  0
  3  7  1  0
  7  8  1  0
  7  9  1  0
  7 10  1  0
  2 11  1  0
 11 12  1  0
 11 13  2  0
  1  2  2  0
  2  5  1  0
  5  6  2  0
  6  4  1  0
  4  3  2  0
  3  1  1  0
M  END

$$$$
