No_3593-gen_results/8p0m/2024-11-27-11-27-31/
     RDKit          3D

 13 13  0  0  0  0  0  0  0  0999 V2000
  -28.0162   -0.8135   28.8779 C   0  0  0  0  0  0  0  0  0  0  0  0
  -27.0636   -0.1189   28.6079 C   0  0  0  0  0  0  0  0  0  0  0  0
  -26.8756    1.1325   28.9134 C   0  0  0  0  0  0  0  0  0  0  0  0
  -25.6883    1.9515   28.5672 C   0  0  0  0  0  0  0  0  0  0  0  0
  -24.6394    1.2834   27.8753 C   0  0  0  0  0  0  0  0  0  0  0  0
  -24.8068   -0.0513   27.6040 C   0  0  0  0  0  0  0  0  0  0  0  0
  -25.9019   -0.7670   27.9511 C   0  0  0  0  0  0  0  0  0  0  0  0
  -28.4523   -0.2679   30.1600 F   0  0  0  0  0  0  0  0  0  0  0  0
  -23.4500    1.9780   27.4676 C   0  0  0  0  0  0  0  0  0  0  0  0
  -23.4220    2.3853   26.3230 F   0  0  0  0  0  0  0  0  0  0  0  0
  -23.1143    3.0188   28.3058 F   0  0  0  0  0  0  0  0  0  0  0  0
  -22.3072    1.1615   27.6520 F   0  0  0  0  0  0  0  0  0  0  0  0
  -29.0660   -0.6562   28.0784 F   0  0  0  0  0  0  0  0  0  0  0  0
  1  8  1  0
  5  9  1  0
  9 10  1  0
  9 11  1  0
  9 12  1  0
  1 13  1  0
  1  2  1  0
  2  3  2  0
  3  4  1  0
  4  5  2  0
  5  6  1  0
  6  7  2  0
  7  2  1  0
M  END

$$$$
