No_3786-gen_results/8p0m/2024-11-27-11-27-31/
     RDKit          3D

 18 20  0  0  0  0  0  0  0  0999 V2000
  -28.0162   -0.8135   28.8779 C   0  0  0  0  0  0  0  0  0  0  0  0
  -28.4690   -0.7850   29.8287 C   0  0  0  0  0  0  0  0  0  0  0  0
  -28.1960    0.3478   28.0550 C   0  0  0  0  0  0  0  0  0  0  0  0
  -29.0191    1.3501   28.3782 C   0  0  0  0  0  0  0  0  0  0  0  0
  -29.4107    0.1803   30.3782 C   0  0  0  0  0  0  0  0  0  0  0  0
  -29.6059    1.2495   29.6193 C   0  0  0  0  0  0  0  0  0  0  0  0
  -27.5003    0.3576   26.8164 O   0  0  0  0  0  0  0  0  0  0  0  0
  -26.4976    1.3388   26.6595 C   0  0  0  0  0  0  0  0  0  0  0  0
  -25.4372    1.2764   27.6264 C   0  0  0  0  0  0  0  0  0  0  0  0
  -24.8070    0.4567   28.0541 C   0  0  0  0  0  0  0  0  0  0  0  0
  -23.7043    0.6282   28.9951 C   0  0  0  0  0  0  0  0  0  0  0  0
  -24.7489    2.6528   27.8418 C   0  0  0  0  0  0  0  0  0  0  0  0
  -25.3986    3.9005   27.2381 C   0  0  0  0  0  0  0  0  0  0  0  0
  -23.0779    1.7850   29.1292 C   0  0  0  0  0  0  0  0  0  0  0  0
  -23.6302    2.7861   28.6398 C   0  0  0  0  0  0  0  0  0  0  0  0
  -26.0319    1.3838   25.2708 C   0  0  0  0  0  0  0  0  0  0  0  0
  -27.3594    2.7348   26.7240 C   0  0  0  0  0  0  0  0  0  0  0  0
  -26.8245    3.6796   27.2341 C   0  0  0  0  0  0  0  0  0  0  0  0
  3  7  1  0
  7  8  1  0
  8  9  1  0
 12 13  1  0
  8 16  1  0
  8 17  1  0
 13 18  1  0
 17 18  1  0
  9 10  2  0
 10 11  1  0
 11 14  2  0
 14 15  1  0
 15 12  2  0
 12  9  1  0
  1  2  2  0
  2  5  1  0
  5  6  2  0
  6  4  1  0
  4  3  2  0
  3  1  1  0
M  END

$$$$
