No_3760-gen_results/8p0m/2024-11-27-11-27-31/
     RDKit          3D

 33 37  0  0  0  0  0  0  0  0999 V2000
  -28.0162   -0.8135   28.8779 C   0  0  0  0  0  0  0  0  0  0  0  0
  -28.4690   -0.7850   29.8287 C   0  0  0  0  0  0  0  0  0  0  0  0
  -26.5455   -0.8762   28.8500 C   0  0  0  0  0  0  0  0  0  0  0  0
  -25.8041   -1.0324   30.0571 C   0  0  0  0  0  0  0  0  0  0  0  0
  -26.5373   -1.0386   31.2171 C   0  0  0  0  0  0  0  0  0  0  0  0
  -27.8843   -0.9532   31.1862 C   0  0  0  0  0  0  0  0  0  0  0  0
  -24.3555   -1.1121   30.0346 C   0  0  0  0  0  0  0  0  0  0  0  0
  -23.6610    0.1027   29.8448 C   0  0  0  0  0  0  0  0  0  0  0  0
  -23.9525    1.2330   30.4520 C   0  0  0  0  0  0  0  0  0  0  0  0
  -22.5070    0.1052   28.9319 C   0  0  0  0  0  0  0  0  0  0  0  0
  -22.0627    1.2509   28.2955 C   0  0  0  0  0  0  0  0  0  0  0  0
  -23.5585    2.5258   29.9215 C   0  0  0  0  0  0  0  0  0  0  0  0
  -22.5072    2.5050   28.8960 C   0  0  0  0  0  0  0  0  0  0  0  0
  -25.6129   -0.7399   27.3766 Cl  0  0  0  0  0  0  0  0  0  0  0  0
  -29.8970   -0.7232   29.8658 F   0  0  0  0  0  0  0  0  0  0  0  0
  -28.7151   -1.0119   32.4271 C   0  0  0  0  0  0  0  0  0  0  0  0
  -29.3861   -2.0767   32.7798 N   0  0  0  0  0  0  0  0  0  0  0  0
  -29.4142   -3.1303   32.1368 C   0  0  0  0  0  0  0  0  0  0  0  0
  -29.9947   -4.3446   32.7397 C   0  0  0  0  0  0  0  0  0  0  0  0
  -30.1185   -2.0771   34.0644 C   0  0  0  0  0  0  0  0  0  0  0  0
  -30.2667   -5.4156   31.8003 C   0  0  0  0  0  0  0  0  0  0  0  0
  -30.1655   -4.9950   30.5341 C   0  0  0  0  0  0  0  0  0  0  0  0
  -29.4652   -3.9345   30.0903 C   0  0  0  0  0  0  0  0  0  0  0  0
  -29.2933   -2.8848   30.8998 C   0  0  0  0  0  0  0  0  0  0  0  0
  -30.4420   -2.4199   30.5116 O   0  0  0  0  0  0  0  0  0  0  0  0
  -31.6011   -2.4210   30.2277 C   0  0  0  0  0  0  0  0  0  0  0  0
  -29.4650   -1.0685   34.9020 C   0  0  0  0  0  0  0  0  0  0  0  0
  -29.3116    0.1559   34.4831 C   0  0  0  0  0  0  0  0  0  0  0  0
  -28.5684    0.2460   33.2722 C   0  0  0  0  0  0  0  0  0  0  0  0
  -30.9995   -5.7765   29.5937 C   0  0  0  0  0  0  0  0  0  0  0  0
  -31.4590   -7.0046   29.8041 C   0  0  0  0  0  0  0  0  0  0  0  0
  -31.2959   -7.4552   31.1331 C   0  0  0  0  0  0  0  0  0  0  0  0
  -30.8043   -6.6615   32.1771 C   0  0  0  0  0  0  0  0  0  0  0  0
  4  7  1  0
  7  8  1  0
  3 14  1  0
  2 15  1  0
  6 16  1  0
 16 17  1  0
 17 18  1  0
 17 20  1  0
 24 25  1  0
 25 26  1  0
 20 27  1  0
 27 28  1  0
 16 29  1  0
 29 28  1  0
 18 19  2  0
 19 21  1  0
 22 23  1  0
 23 24  2  0
 24 18  1  0
 21 22  2  0
 22 30  1  0
 30 31  2  0
 31 32  1  0
 32 33  2  0
 33 21  1  0
  1  2  2  0
  2  6  1  0
  6  5  2  0
  5  4  1  0
  4  3  2  0
  3  1  1  0
  8  9  2  0
  9 12  1  0
 12 13  2  0
 13 11  1  0
 11 10  2  0
 10  8  1  0
M  END

$$$$
