No_3875-gen_results/8p0m/2024-11-27-11-27-31/
     RDKit          3D

 17 17  0  0  0  0  0  0  0  0999 V2000
  -28.0162   -0.8135   28.8779 C   0  0  0  0  0  0  0  0  0  0  0  0
  -27.0636   -0.1189   28.6079 C   0  0  0  0  0  0  0  0  0  0  0  0
  -26.8756    1.1325   28.9134 C   0  0  0  0  0  0  0  0  0  0  0  0
  -25.6883    1.9515   28.5672 C   0  0  0  0  0  0  0  0  0  0  0  0
  -24.6394    1.2834   27.8753 C   0  0  0  0  0  0  0  0  0  0  0  0
  -24.8068   -0.0513   27.6040 C   0  0  0  0  0  0  0  0  0  0  0  0
  -25.9020   -0.7670   27.9511 C   0  0  0  0  0  0  0  0  0  0  0  0
  -29.2159   -0.1185   29.1813 C   0  0  0  0  0  0  0  0  0  0  0  0
  -30.1606   -0.7081   29.8314 N   0  0  0  0  0  0  0  0  0  0  0  0
  -23.4208    1.9744   27.5040 C   0  0  0  0  0  0  0  0  0  0  0  0
  -21.8546    1.8122   27.7951 Cl  0  0  0  0  0  0  0  0  0  0  0  0
  -23.6822    2.9634   26.3730 C   0  0  0  0  0  0  0  0  0  0  0  0
  -29.9127   -1.4666   30.8132 C   0  0  0  0  0  0  0  0  0  0  0  0
  -31.5941   -0.6816   29.4573 C   0  0  0  0  0  0  0  0  0  0  0  0
  -25.5499    3.4095   28.9007 C   0  0  0  0  0  0  0  0  0  0  0  0
  -25.1799    3.6842   29.9963 O   0  0  0  0  0  0  0  0  0  0  0  0
  -25.9046    4.2342   28.0613 F   0  0  0  0  0  0  0  0  0  0  0  0
  1  2  2  3
  2  3  1  0
  3  4  1  0
  4  5  1  0
  5  6  1  0
  2  7  1  0
  6  7  1  0
  1  8  1  0
  8  9  1  0
  5 10  1  0
 10 11  1  0
 10 12  1  0
  9 13  1  0
  9 14  1  0
  4 15  1  0
 15 16  2  0
 15 17  1  0
M  END

$$$$
