No_3136-gen_results/8p0m/2024-11-27-11-27-31/
     RDKit          3D

 21 23  0  0  0  0  0  0  0  0999 V2000
  -28.0162   -0.8135   28.8779 C   0  0  0  0  0  0  0  0  0  0  0  0
  -28.4690   -0.7850   29.8287 C   0  0  0  0  0  0  0  0  0  0  0  0
  -27.1356    0.2359   28.5352 C   0  0  0  0  0  0  0  0  0  0  0  0
  -26.8745    1.2825   29.3982 C   0  0  0  0  0  0  0  0  0  0  0  0
  -27.5070    1.2380   30.6295 C   0  0  0  0  0  0  0  0  0  0  0  0
  -28.3269    0.1637   30.9240 C   0  0  0  0  0  0  0  0  0  0  0  0
  -26.4110    0.3070   27.2192 C   0  0  0  0  0  0  0  0  0  0  0  0
  -25.0121    0.3340   27.3197 C   0  0  0  0  0  0  0  0  0  0  0  0
  -27.0431    0.3567   25.9990 C   0  0  0  0  0  0  0  0  0  0  0  0
  -26.2715    0.2663   24.8487 C   0  0  0  0  0  0  0  0  0  0  0  0
  -24.3109    0.2364   28.6152 C   0  0  0  0  0  0  0  0  0  0  0  0
  -23.1303    0.5277   28.8149 C   0  0  0  0  0  0  0  0  0  0  0  0
  -22.4670    0.5346   30.0916 C   0  0  0  0  0  0  0  0  0  0  0  0
  -24.8577    0.3221   24.9255 C   0  0  0  0  0  0  0  0  0  0  0  0
  -24.2417    0.3899   26.1255 C   0  0  0  0  0  0  0  0  0  0  0  0
  -23.3700   -0.0604   31.0768 C   0  0  0  0  0  0  0  0  0  0  0  0
  -24.8182   -0.1874   29.8630 N   0  0  0  0  0  0  0  0  0  0  0  0
  -24.1894   -0.4271   30.9320 C   0  0  0  0  0  0  0  0  0  0  0  0
  -25.1821   -0.9704   32.0390 C   0  0  0  0  0  0  0  0  0  0  0  0
  -24.1687   -2.0515   30.8349 C   0  0  0  0  0  0  0  0  0  0  0  0
  -24.8702   -0.6106   33.1664 O   0  0  0  0  0  0  0  0  0  0  0  0
  3  7  1  0
  8 11  1  0
 11 12  2  0
 12 13  1  0
 13 16  2  0
 11 17  1  0
 16 17  1  0
 16 18  1  0
 18 19  1  0
 18 20  1  0
 19 21  1  0
  1  2  2  0
  2  6  1  0
  6  5  2  0
  5  4  1  0
  4  3  2  0
  3  1  1  0
  7  8  2  0
  8 15  1  0
 15 14  2  0
 14 10  1  0
 10  9  2  0
  9  7  1  0
M  END

$$$$
