No_3953-gen_results/8p0m/2024-11-27-11-27-31/
     RDKit          3D

 12 12  0  0  0  0  0  0  0  0999 V2000
  -28.0162   -0.8135   28.8779 C   0  0  0  0  0  0  0  0  0  0  0  0
  -28.6209   -1.1855   29.7353 Cl  0  0  0  0  0  0  0  0  0  0  0  0
  -26.5231   -0.7877   28.9754 C   0  0  0  0  0  0  0  0  0  0  0  0
  -25.8110   -1.8464   29.5517 C   0  0  0  0  0  0  0  0  0  0  0  0
  -24.4574   -1.9291   29.7249 C   0  0  0  0  0  0  0  0  0  0  0  0
  -23.6372   -0.8542   29.2265 C   0  0  0  0  0  0  0  0  0  0  0  0
  -22.2182   -0.7376   29.3371 C   0  0  0  0  0  0  0  0  0  0  0  0
  -24.2735    0.2820   28.5204 C   0  0  0  0  0  0  0  0  0  0  0  0
  -25.6563    0.2598   28.4669 C   0  0  0  0  0  0  0  0  0  0  0  0
  -28.3742    0.1916   28.0274 O   0  0  0  0  0  0  0  0  0  0  0  0
  -21.5162    0.1720   28.6437 N   0  0  0  0  0  0  0  0  0  0  0  0
  -20.1949    0.0959   28.7288 C   0  0  0  0  0  0  0  0  0  0  0  0
  1  2  1  0
  1  3  1  0
  6  7  1  0
  1 10  2  0
  7 11  2  3
 11 12  1  0
  3  4  2  0
  4  5  1  0
  5  6  2  0
  6  8  1  0
  8  9  2  0
  9  3  1  0
M  END

$$$$
