No_3999-gen_results/8p0m/2024-11-27-11-27-31/
     RDKit          3D

 20 21  0  0  0  0  0  0  0  0999 V2000
  -28.0162   -0.8135   28.8779 C   0  0  0  0  0  0  0  0  0  0  0  0
  -27.0636   -0.1189   28.6079 C   0  0  0  0  0  0  0  0  0  0  0  0
  -25.7923   -0.4302   29.0761 C   0  0  0  0  0  0  0  0  0  0  0  0
  -24.5456    0.3494   28.8225 C   0  0  0  0  0  0  0  0  0  0  0  0
  -24.6586    1.4196   27.8878 C   0  0  0  0  0  0  0  0  0  0  0  0
  -25.9471    1.6811   27.3792 C   0  0  0  0  0  0  0  0  0  0  0  0
  -27.0439    0.9739   27.6871 C   0  0  0  0  0  0  0  0  0  0  0  0
  -28.0241   -1.6475   30.1262 C   0  0  0  0  0  0  0  0  0  0  0  0
  -26.7278   -2.0845   30.5807 C   0  0  0  0  0  0  0  0  0  0  0  0
  -25.5915   -1.4064   30.1489 C   0  0  0  0  0  0  0  0  0  0  0  0
  -23.4486    2.1675   27.5241 C   0  0  0  0  0  0  0  0  0  0  0  0
  -23.7091    3.3635   27.3211 F   0  0  0  0  0  0  0  0  0  0  0  0
  -22.7582    1.6378   26.4880 F   0  0  0  0  0  0  0  0  0  0  0  0
  -22.5661    2.2191   28.5898 F   0  0  0  0  0  0  0  0  0  0  0  0
  -29.1709   -2.4642   30.5245 C   0  0  0  0  0  0  0  0  0  0  0  0
  -29.1589   -3.6357   30.8009 O   0  0  0  0  0  0  0  0  0  0  0  0
  -30.1235   -1.7684   31.0590 F   0  0  0  0  0  0  0  0  0  0  0  0
  -28.3172    1.3816   27.0210 C   0  0  0  0  0  0  0  0  0  0  0  0
  -28.5388    1.3517   25.8839 O   0  0  0  0  0  0  0  0  0  0  0  0
  -29.3266    1.6527   27.8538 O   0  0  0  0  0  0  0  0  0  0  0  0
  5 11  1  0
 11 12  1  0
 11 13  1  0
 11 14  1  0
  8 15  1  0
 15 16  2  0
 15 17  1  0
  7 18  1  0
 18 19  2  0
 18 20  1  0
  3  4  1  0
  4  5  2  0
  5  6  1  0
  6  7  2  0
  7  2  1  0
  1  2  2  0
  2  3  1  0
  3 10  2  0
 10  9  1  0
  9  8  2  0
  8  1  1  0
M  END

$$$$
