No_3355-gen_results/8p0m/2024-11-27-11-27-31/
     RDKit          3D

 12 13  0  0  0  0  0  0  0  0999 V2000
  -28.0162   -0.8135   28.8779 C   0  0  0  0  0  0  0  0  0  0  0  0
  -28.4690   -0.7850   29.8287 C   0  0  0  0  0  0  0  0  0  0  0  0
  -27.1356    0.2359   28.5352 C   0  0  0  0  0  0  0  0  0  0  0  0
  -26.8745    1.2825   29.3982 C   0  0  0  0  0  0  0  0  0  0  0  0
  -27.5070    1.2380   30.6295 C   0  0  0  0  0  0  0  0  0  0  0  0
  -28.3484    0.0500   30.8819 C   0  0  0  0  0  0  0  0  0  0  0  0
  -26.4067    0.3285   27.2239 C   0  0  0  0  0  0  0  0  0  0  0  0
  -25.0424    0.3244   27.3214 C   0  0  0  0  0  0  0  0  0  0  0  0
  -27.0535    0.3984   26.0064 C   0  0  0  0  0  0  0  0  0  0  0  0
  -26.3231    0.3157   24.8440 C   0  0  0  0  0  0  0  0  0  0  0  0
  -24.2727    0.4011   26.1252 C   0  0  0  0  0  0  0  0  0  0  0  0
  -24.9444    0.3565   24.8923 C   0  0  0  0  0  0  0  0  0  0  0  0
  3  7  1  0
  1  2  2  0
  2  6  1  0
  6  5  2  0
  5  4  1  0
  4  3  2  0
  3  1  1  0
  7  8  2  0
  8 11  1  0
 11 12  2  0
 12 10  1  0
 10  9  2  0
  9  7  1  0
M  END

$$$$
