No_3930-gen_results/8p0m/2024-11-27-11-27-31/
     RDKit          3D

 14 15  0  0  0  0  0  0  0  0999 V2000
  -28.0162   -0.8135   28.8779 C   0  0  0  0  0  0  0  0  0  0  0  0
  -27.0636   -0.1190   28.6079 C   0  0  0  0  0  0  0  0  0  0  0  0
  -26.9716    0.7139   27.5060 C   0  0  0  0  0  0  0  0  0  0  0  0
  -28.1053    0.7744   26.6421 C   0  0  0  0  0  0  0  0  0  0  0  0
  -29.2041    0.1179   27.0477 C   0  0  0  0  0  0  0  0  0  0  0  0
  -29.2127   -0.6088   28.1281 C   0  0  0  0  0  0  0  0  0  0  0  0
  -30.4805    0.1928   26.3238 C   0  0  0  0  0  0  0  0  0  0  0  0
  -31.2053    1.1965   26.5037 O   0  0  0  0  0  0  0  0  0  0  0  0
  -30.7233   -0.7020   25.4028 O   0  0  0  0  0  0  0  0  0  0  0  0
  -25.6716    1.4086   27.1153 C   0  0  0  0  0  0  0  0  0  0  0  0
  -24.5353    1.0543   27.7177 C   0  0  0  0  0  0  0  0  0  0  0  0
  -23.3136    1.8096   27.3565 C   0  0  0  0  0  0  0  0  0  0  0  0
  -23.5084    2.6010   26.2713 N   0  0  0  0  0  0  0  0  0  0  0  0
  -25.3242    2.3860   26.1055 C   0  0  0  0  0  0  0  0  0  0  0  0
  5  7  1  0
  7  8  2  0
  7  9  1  0
  3 10  1  0
 10 11  2  0
 11 12  1  0
 12 13  2  0
 10 14  1  0
 13 14  1  0
  1  2  2  0
  2  3  1  0
  3  4  2  0
  4  5  1  0
  5  6  2  0
  6  1  1  0
M  END

$$$$
