No_3147-gen_results/8p0m/2024-11-27-11-27-31/
     RDKit          3D

 17 19  0  0  0  0  0  0  0  0999 V2000
  -28.0162   -0.8135   28.8779 C   0  0  0  0  0  0  0  0  0  0  0  0
  -28.4690   -0.7850   29.8287 C   0  0  0  0  0  0  0  0  0  0  0  0
  -28.1960    0.3478   28.0550 C   0  0  0  0  0  0  0  0  0  0  0  0
  -29.0191    1.3501   28.3782 C   0  0  0  0  0  0  0  0  0  0  0  0
  -29.4107    0.1803   30.3782 C   0  0  0  0  0  0  0  0  0  0  0  0
  -29.6059    1.2495   29.6193 C   0  0  0  0  0  0  0  0  0  0  0  0
  -27.4597    0.3802   26.7091 C   0  0  0  0  0  0  0  0  0  0  0  0
  -26.0094    0.3317   26.7236 C   0  0  0  0  0  0  0  0  0  0  0  0
  -25.2816    0.9146   25.7613 C   0  0  0  0  0  0  0  0  0  0  0  0
  -23.8913    0.9368   25.8455 C   0  0  0  0  0  0  0  0  0  0  0  0
  -23.2583    0.7193   27.0801 C   0  0  0  0  0  0  0  0  0  0  0  0
  -24.0388    0.2729   28.1602 C   0  0  0  0  0  0  0  0  0  0  0  0
  -25.3870    0.1168   28.0286 C   0  0  0  0  0  0  0  0  0  0  0  0
  -23.3642    0.0223   29.4529 C   0  0  0  0  0  0  0  0  0  0  0  0
  -23.7894   -0.6119   30.3616 C   0  0  0  0  0  0  0  0  0  0  0  0
  -25.1373   -1.0777   30.4065 C   0  0  0  0  0  0  0  0  0  0  0  0
  -25.9492   -0.6494   29.1660 C   0  0  0  0  0  0  0  0  0  0  0  0
  3  7  1  0
  7  8  1  0
 13 17  2  0
 17 16  1  0
 16 15  2  0
 15 14  1  0
 14 12  2  0
  8  9  2  0
  9 10  1  0
 10 11  2  0
 11 12  1  0
 12 13  1  0
 13  8  1  0
  1  2  2  0
  2  5  1  0
  5  6  2  0
  6  4  1  0
  4  3  2  0
  3  1  1  0
M  END

$$$$
