No_3428-gen_results/8p0m/2024-11-27-11-27-31/
     RDKit          3D

 25 25  0  0  0  0  0  0  0  0999 V2000
  -28.0162   -0.8135   28.8779 C   0  0  0  0  0  0  0  0  0  0  0  0
  -28.4690   -0.7850   29.8287 C   0  0  0  0  0  0  0  0  0  0  0  0
  -27.0871    0.2903   28.6377 C   0  0  0  0  0  0  0  0  0  0  0  0
  -26.8317    1.2487   29.5869 C   0  0  0  0  0  0  0  0  0  0  0  0
  -28.3914    0.0801   31.0065 C   0  0  0  0  0  0  0  0  0  0  0  0
  -27.4940    1.1521   30.7841 C   0  0  0  0  0  0  0  0  0  0  0  0
  -26.3109    0.3918   27.3640 C   0  0  0  0  0  0  0  0  0  0  0  0
  -25.5530   -0.4068   27.2285 F   0  0  0  0  0  0  0  0  0  0  0  0
  -25.6173    1.6102   27.2977 F   0  0  0  0  0  0  0  0  0  0  0  0
  -27.1940    0.4863   26.2871 F   0  0  0  0  0  0  0  0  0  0  0  0
  -29.4507   -2.0327   30.2361 C   0  0  0  0  0  0  0  0  0  0  0  0
  -28.9820   -3.1803   30.3476 O   0  0  0  0  0  0  0  0  0  0  0  0
  -30.6300   -1.9040   30.5163 O   0  0  0  0  0  0  0  0  0  0  0  0
  -27.2798    2.1723   31.8415 C   0  0  0  0  0  0  0  0  0  0  0  0
  -27.1209    1.9835   32.9179 O   0  0  0  0  0  0  0  0  0  0  0  0
  -27.1472    3.4225   31.2883 O   0  0  0  0  0  0  0  0  0  0  0  0
  -26.4308    4.3427   31.9205 C   0  0  0  0  0  0  0  0  0  0  0  0
  -25.1810    4.7065   31.2424 C   0  0  0  0  0  0  0  0  0  0  0  0
  -25.1293    5.6068   30.6710 O   0  0  0  0  0  0  0  0  0  0  0  0
  -24.1770    3.8639   31.5868 O   0  0  0  0  0  0  0  0  0  0  0  0
  -31.5050   -2.8830   30.4830 C   0  0  0  0  0  0  0  0  0  0  0  0
  -32.8546   -2.6000   30.4919 C   0  0  0  0  0  0  0  0  0  0  0  0
  -33.2798   -1.5475   30.6507 O   0  0  0  0  0  0  0  0  0  0  0  0
  -33.8168   -3.6667   30.1015 C   0  0  0  0  0  0  0  0  0  0  0  0
  -33.8123   -4.3942   29.4093 O   0  0  0  0  0  0  0  0  0  0  0  0
  3  7  1  0
  7  8  1  0
  7  9  1  0
  7 10  1  0
  2 11  1  0
 11 12  2  0
 11 13  1  0
  6 14  1  0
 14 15  2  0
 14 16  1  0
 16 17  1  0
 17 18  1  0
 18 19  2  0
 18 20  1  0
 13 21  1  0
 21 22  1  0
 22 23  1  0
 22 24  1  0
 24 25  2  0
  1  2  2  0
  2  5  1  0
  5  6  2  0
  6  4  1  0
  4  3  2  0
  3  1  1  0
M  END

$$$$
