No_3994-gen_results/8p0m/2024-11-27-11-27-31/
     RDKit          3D

 27 29  0  0  0  0  0  0  0  0999 V2000
  -28.0162   -0.8135   28.8779 C   0  0  0  0  0  0  0  0  0  0  0  0
  -27.0636   -0.1190   28.6079 C   0  0  0  0  0  0  0  0  0  0  0  0
  -27.0010    0.6913   27.4910 C   0  0  0  0  0  0  0  0  0  0  0  0
  -28.1373    0.7363   26.6350 C   0  0  0  0  0  0  0  0  0  0  0  0
  -29.2360    0.0765   27.0690 C   0  0  0  0  0  0  0  0  0  0  0  0
  -29.2177   -0.6429   28.1747 C   0  0  0  0  0  0  0  0  0  0  0  0
  -28.0102   -1.6025   30.0500 N   0  0  0  0  0  0  0  0  0  0  0  0
  -27.5545   -1.8590   30.9438 C   0  0  0  0  0  0  0  0  0  0  0  0
  -30.4175    0.1593   26.1735 C   0  0  0  0  0  0  0  0  0  0  0  0
  -30.4131    0.1804   24.9645 O   0  0  0  0  0  0  0  0  0  0  0  0
  -26.2191   -1.2636   30.8727 N   0  0  0  0  0  0  0  0  0  0  0  0
  -25.9046   -0.3832   29.7711 C   0  0  0  0  0  0  0  0  0  0  0  0
  -31.5730    0.4095   26.7235 O   0  0  0  0  0  0  0  0  0  0  0  0
  -24.7900    0.2197   29.6756 F   0  0  0  0  0  0  0  0  0  0  0  0
  -29.4894   -2.4777   30.1102 C   0  0  0  0  0  0  0  0  0  0  0  0
  -30.4892   -1.9247   30.9140 C   0  0  0  0  0  0  0  0  0  0  0  0
  -30.3601   -1.0375   31.5774 O   0  0  0  0  0  0  0  0  0  0  0  0
  -31.6120   -2.6356   30.8752 N   0  0  0  0  0  0  0  0  0  0  0  0
  -31.9254   -3.7707   30.1500 C   0  0  0  0  0  0  0  0  0  0  0  0
  -32.7637   -2.1683   31.7502 C   0  0  0  0  0  0  0  0  0  0  0  0
  -32.8604   -3.7480   29.1913 C   0  0  0  0  0  0  0  0  0  0  0  0
  -33.3468   -2.9381   28.5692 C   0  0  0  0  0  0  0  0  0  0  0  0
  -34.3367   -2.9996   27.4914 C   0  0  0  0  0  0  0  0  0  0  0  0
  -34.6800   -4.2912   27.1685 C   0  0  0  0  0  0  0  0  0  0  0  0
  -34.1409   -5.3686   27.7984 C   0  0  0  0  0  0  0  0  0  0  0  0
  -33.2347   -5.1565   28.7629 C   0  0  0  0  0  0  0  0  0  0  0  0
  -31.2816   -4.7295   30.5661 O   0  0  0  0  0  0  0  0  0  0  0  0
  1  7  1  0
  7  8  1  0
  5  9  1  0
  9 10  2  0
  2 12  1  0
 11 12  1  0
  9 13  1  0
 12 14  1  0
  7 15  1  0
 15 16  1  0
 16 17  2  0
 16 18  1  0
 18 19  1  0
 18 20  1  0
 19 21  1  0
 19 27  2  0
 11  8  1  0
  1  2  1  0
  2  3  2  0
  3  4  1  0
  4  5  2  0
  5  6  1  0
  6  1  2  0
 21 22  2  0
 22 23  1  0
 23 24  2  0
 24 25  1  0
 25 26  2  0
 26 21  1  0
M  END

$$$$
