No_3801-gen_results/8p0m/2024-11-27-11-27-31/
     RDKit          3D

 12 12  0  0  0  0  0  0  0  0999 V2000
  -28.0544   -1.0498   28.7246 N   0  0  0  0  0  0  0  0  0  0  0  0
  -26.9659   -0.4722   28.7709 C   0  0  0  0  0  0  0  0  0  0  0  0
  -26.5486    0.3876   27.8310 C   0  0  0  0  0  0  0  0  0  0  0  0
  -27.4759    0.7264   26.7673 C   0  0  0  0  0  0  0  0  0  0  0  0
  -28.6984    0.1676   26.8682 C   0  0  0  0  0  0  0  0  0  0  0  0
  -28.9965   -0.5970   27.9089 C   0  0  0  0  0  0  0  0  0  0  0  0
  -29.6464    0.5427   25.8022 C   0  0  0  0  0  0  0  0  0  0  0  0
  -30.1319    1.5726   25.7608 O   0  0  0  0  0  0  0  0  0  0  0  0
  -29.8049   -0.4064   24.7714 O   0  0  0  0  0  0  0  0  0  0  0  0
  -25.9824   -0.8609   29.7662 N   0  0  0  0  0  0  0  0  0  0  0  0
  -24.6922   -0.4984   29.7405 C   0  0  0  0  0  0  0  0  0  0  0  0
  -24.3314    0.5271   28.8255 C   0  0  0  0  0  0  0  0  0  0  0  0
  5  7  1  0
  7  8  2  0
  7  9  1  0
  2 10  1  0
 10 11  2  3
 11 12  1  0
  1  2  2  0
  2  3  1  0
  3  4  2  0
  4  5  1  0
  5  6  2  0
  6  1  1  0
M  END

$$$$
