No_388-gen_results/8p0m/2024-11-27-11-27-31/
     RDKit          3D

 22 23  0  0  0  0  0  0  0  0999 V2000
  -28.0162   -0.8135   28.8779 C   0  0  0  0  0  0  0  0  0  0  0  0
  -28.4690   -0.7850   29.8287 C   0  0  0  0  0  0  0  0  0  0  0  0
  -26.5042   -0.7777   28.8766 C   0  0  0  0  0  0  0  0  0  0  0  0
  -25.6540   -0.6597   27.7191 C   0  0  0  0  0  0  0  0  0  0  0  0
  -27.9180   -0.9374   31.1824 C   0  0  0  0  0  0  0  0  0  0  0  0
  -26.5423   -0.9399   31.2606 C   0  0  0  0  0  0  0  0  0  0  0  0
  -25.7832   -0.8935   30.1201 C   0  0  0  0  0  0  0  0  0  0  0  0
  -25.2204    0.6866   27.3939 C   0  0  0  0  0  0  0  0  0  0  0  0
  -25.3029    1.0787   26.0731 C   0  0  0  0  0  0  0  0  0  0  0  0
  -25.8836    0.2186   25.1434 C   0  0  0  0  0  0  0  0  0  0  0  0
  -26.8741   -0.0435   24.8097 C   0  0  0  0  0  0  0  0  0  0  0  0
  -27.8786    0.2471   24.3053 C   0  0  0  0  0  0  0  0  0  0  0  0
  -29.0761   -0.4812   24.0857 C   0  0  0  0  0  0  0  0  0  0  0  0
  -30.3831   -0.1888   24.4384 C   0  0  0  0  0  0  0  0  0  0  0  0
  -30.6489    1.2135   24.4305 C   0  0  0  0  0  0  0  0  0  0  0  0
  -29.5880    2.1570   24.4838 C   0  0  0  0  0  0  0  0  0  0  0  0
  -28.3775    1.7390   24.6151 C   0  0  0  0  0  0  0  0  0  0  0  0
  -24.6091    1.4930   28.4458 C   0  0  0  0  0  0  0  0  0  0  0  0
  -23.2894    1.6268   28.4231 C   0  0  0  0  0  0  0  0  0  0  0  0
  -25.4210    2.2595   29.3037 C   0  0  0  0  0  0  0  0  0  0  0  0
  -25.1454    2.2179   30.6564 C   0  0  0  0  0  0  0  0  0  0  0  0
  -25.9388    3.0375   31.5962 C   0  0  0  0  0  0  0  0  0  0  0  0
  3  4  1  0
  4  8  1  0
  8  9  2  3
  9 10  1  0
 10 11  2  3
 11 12  1  0
  8 18  1  0
 18 19  1  0
 18 20  1  0
 20 21  2  3
 21 22  1  0
 12 13  2  0
 13 14  1  0
 14 15  2  0
 15 16  1  0
 16 17  2  0
 17 12  1  0
  1  2  2  0
  2  5  1  0
  5  6  2  0
  6  7  1  0
  7  3  2  0
  3  1  1  0
M  END

$$$$
