No_3007-gen_results/8p0m/2024-11-27-11-27-31/
     RDKit          3D

 27 29  0  0  0  0  0  0  0  0999 V2000
  -28.0162   -0.8135   28.8779 C   0  0  0  0  0  0  0  0  0  0  0  0
  -27.0636   -0.1189   28.6079 C   0  0  0  0  0  0  0  0  0  0  0  0
  -26.9716    0.7139   27.5060 C   0  0  0  0  0  0  0  0  0  0  0  0
  -25.8205    1.4909   27.1160 C   0  0  0  0  0  0  0  0  0  0  0  0
  -24.8579    1.3421   27.6008 C   0  0  0  0  0  0  0  0  0  0  0  0
  -24.6224    0.5295   28.8144 C   0  0  0  0  0  0  0  0  0  0  0  0
  -25.7344   -0.1811   29.1908 C   0  0  0  0  0  0  0  0  0  0  0  0
  -28.6149   -0.5622   30.1538 N   0  0  0  0  0  0  0  0  0  0  0  0
  -23.5208    2.1265   27.2931 C   0  0  0  0  0  0  0  0  0  0  0  0
  -22.8144    2.4371   28.2369 F   0  0  0  0  0  0  0  0  0  0  0  0
  -23.5726    2.8223   26.4852 F   0  0  0  0  0  0  0  0  0  0  0  0
  -28.2384    0.2465   30.8809 C   0  0  0  0  0  0  0  0  0  0  0  0
  -28.4927    0.8460   31.8572 C   0  0  0  0  0  0  0  0  0  0  0  0
  -27.8233    1.8578   32.6708 C   0  0  0  0  0  0  0  0  0  0  0  0
  -26.5557    2.2644   32.2098 C   0  0  0  0  0  0  0  0  0  0  0  0
  -26.1130    1.6232   31.0464 C   0  0  0  0  0  0  0  0  0  0  0  0
  -26.8070    0.7314   30.4583 C   0  0  0  0  0  0  0  0  0  0  0  0
  -27.0461    1.5494   29.7487 F   0  0  0  0  0  0  0  0  0  0  0  0
  -25.3870   -1.4733   29.7882 C   0  0  0  0  0  0  0  0  0  0  0  0
  -29.9176   -1.3262   30.4751 C   0  0  0  0  0  0  0  0  0  0  0  0
  -30.8899   -1.4419   31.1029 C   0  0  0  0  0  0  0  0  0  0  0  0
  -31.7344   -2.3942   31.0812 C   0  0  0  0  0  0  0  0  0  0  0  0
  -29.9673   -2.5558   29.8088 N   0  0  0  0  0  0  0  0  0  0  0  0
  -30.9825   -3.2193   30.1596 C   0  0  0  0  0  0  0  0  0  0  0  0
  -24.9243   -2.4729   29.5509 C   0  0  0  0  0  0  0  0  0  0  0  0
  -24.7994   -3.3276   28.5058 C   0  0  0  0  0  0  0  0  0  0  0  0
  -24.1181   -4.5854   28.5431 C   0  0  0  0  0  0  0  0  0  0  0  0
  1  8  1  0
  5  9  1  0
  9 10  1  0
  9 11  1  0
  8 12  1  0
 17 18  1  0
  7 19  1  0
  8 20  1  0
 20 21  1  0
 21 22  2  0
 20 23  1  0
 22 24  1  0
 23 24  1  0
 19 25  2  3
 25 26  1  0
 26 27  1  0
  1  2  1  0
 12 13  2  0
 13 14  1  0
 14 15  2  0
 15 16  1  0
 16 17  2  0
 17 12  1  0
  2  3  2  0
  3  4  1  0
  4  5  2  0
  5  6  1  0
  6  7  2  0
  7  2  1  0
M  END

$$$$
