No_3331-gen_results/8p0m/2024-11-27-11-27-31/
     RDKit          3D

 18 18  0  0  0  0  0  0  0  0999 V2000
  -28.0162   -0.8135   28.8779 C   0  0  0  0  0  0  0  0  0  0  0  0
  -27.0636   -0.1189   28.6079 C   0  0  0  0  0  0  0  0  0  0  0  0
  -27.0010    0.6913   27.4910 C   0  0  0  0  0  0  0  0  0  0  0  0
  -25.8548    1.4825   27.0830 C   0  0  0  0  0  0  0  0  0  0  0  0
  -24.6901    1.4526   27.8807 C   0  0  0  0  0  0  0  0  0  0  0  0
  -24.7379    0.6010   29.0416 C   0  0  0  0  0  0  0  0  0  0  0  0
  -25.8234   -0.1688   29.3887 C   0  0  0  0  0  0  0  0  0  0  0  0
  -28.7350   -0.4637   30.1419 C   0  0  0  0  0  0  0  0  0  0  0  0
  -28.8499    0.5692   30.5170 F   0  0  0  0  0  0  0  0  0  0  0  0
  -29.2957   -1.5341   30.7673 F   0  0  0  0  0  0  0  0  0  0  0  0
  -23.5153    2.2120   27.5827 C   0  0  0  0  0  0  0  0  0  0  0  0
  -22.5892    1.5626   27.0782 F   0  0  0  0  0  0  0  0  0  0  0  0
  -23.0196    2.8419   28.7032 F   0  0  0  0  0  0  0  0  0  0  0  0
  -23.8373    3.2796   26.7924 F   0  0  0  0  0  0  0  0  0  0  0  0
  -28.1444    0.7877   26.6026 C   0  0  0  0  0  0  0  0  0  0  0  0
  -28.0696    0.1388   25.5991 F   0  0  0  0  0  0  0  0  0  0  0  0
  -28.4213    2.0979   26.3250 F   0  0  0  0  0  0  0  0  0  0  0  0
  -29.3354    0.4797   27.2042 F   0  0  0  0  0  0  0  0  0  0  0  0
  1  2  1  0
  1  8  1  0
  8  9  1  0
  8 10  1  0
  5 11  1  0
 11 12  1  0
 11 13  1  0
 11 14  1  0
  3 15  1  0
 15 16  1  0
 15 17  1  0
 15 18  1  0
  2  3  2  0
  3  4  1  0
  4  5  2  0
  5  6  1  0
  6  7  2  0
  7  2  1  0
M  END

$$$$
