No_3738-gen_results/8p0m/2024-11-27-11-27-31/
     RDKit          3D

 26 29  0  0  0  0  0  0  0  0999 V2000
  -28.0162   -0.8135   28.8779 C   0  0  0  0  0  0  0  0  0  0  0  0
  -27.0636   -0.1189   28.6079 C   0  0  0  0  0  0  0  0  0  0  0  0
  -26.9716    0.7139   27.5060 C   0  0  0  0  0  0  0  0  0  0  0  0
  -28.1053    0.7744   26.6421 C   0  0  0  0  0  0  0  0  0  0  0  0
  -29.2041    0.1179   27.0477 C   0  0  0  0  0  0  0  0  0  0  0  0
  -29.2127   -0.6088   28.1281 C   0  0  0  0  0  0  0  0  0  0  0  0
  -30.3709    0.2326   26.1381 C   0  0  0  0  0  0  0  0  0  0  0  0
  -30.3086    0.1051   24.9412 O   0  0  0  0  0  0  0  0  0  0  0  0
  -31.5786    0.2663   26.6747 O   0  0  0  0  0  0  0  0  0  0  0  0
  -25.6671    1.4055   27.1237 C   0  0  0  0  0  0  0  0  0  0  0  0
  -25.1573    2.3543   28.1077 C   0  0  0  0  0  0  0  0  0  0  0  0
  -25.6055    2.7486   28.9356 C   0  0  0  0  0  0  0  0  0  0  0  0
  -26.1150    2.3547   29.8362 C   0  0  0  0  0  0  0  0  0  0  0  0
  -26.4091    2.6815   30.8751 C   0  0  0  0  0  0  0  0  0  0  0  0
  -26.2504    4.1173   31.2194 C   0  0  0  0  0  0  0  0  0  0  0  0
  -25.6325    4.9242   30.3322 C   0  0  0  0  0  0  0  0  0  0  0  0
  -25.1482    4.3144   29.2192 C   0  0  0  0  0  0  0  0  0  0  0  0
  -24.4589    3.4290   27.2515 C   0  0  0  0  0  0  0  0  0  0  0  0
  -24.5191    4.6695   28.1246 N   0  0  0  0  0  0  0  0  0  0  0  0
  -24.9517    0.9441   26.0876 C   0  0  0  0  0  0  0  0  0  0  0  0
  -23.8941    3.3085   26.0526 C   0  0  0  0  0  0  0  0  0  0  0  0
  -24.1501    2.0645   25.4038 C   0  0  0  0  0  0  0  0  0  0  0  0
  -28.1292   -1.6338   30.1302 C   0  0  0  0  0  0  0  0  0  0  0  0
  -28.7955   -1.4589   31.1288 N   0  0  0  0  0  0  0  0  0  0  0  0
  -27.3650   -2.6935   30.0801 O   0  0  0  0  0  0  0  0  0  0  0  0
  -29.1949   -2.0484   32.0204 C   0  0  0  0  0  0  0  0  0  0  0  0
  5  7  1  0
  7  8  2  0
  7  9  1  0
  3 10  1  0
 17 19  1  0
 18 19  1  0
  1 23  1  0
 23 24  1  0
 23 25  2  0
 24 26  1  0
 12 11  1  0
 10 11  2  0
 11 18  1  0
 18 21  2  0
 21 22  1  0
 22 20  2  0
 20 10  1  0
  1  2  2  0
  2  3  1  0
  3  4  2  0
  4  5  1  0
  5  6  2  0
  6  1  1  0
 12 13  2  0
 13 14  1  0
 14 15  2  0
 15 16  1  0
 16 17  2  0
 17 12  1  0
M  END

$$$$
