No_3990-gen_results/8p0m/2024-11-27-11-27-31/
     RDKit          3D

 19 20  0  0  0  0  0  0  0  0999 V2000
  -28.0162   -0.8135   28.8779 C   0  0  0  0  0  0  0  0  0  0  0  0
  -28.4690   -0.7850   29.8287 C   0  0  0  0  0  0  0  0  0  0  0  0
  -26.5042   -0.7777   28.8766 C   0  0  0  0  0  0  0  0  0  0  0  0
  -25.8103   -0.8531   30.1028 C   0  0  0  0  0  0  0  0  0  0  0  0
  -27.9906   -0.8916   31.2257 C   0  0  0  0  0  0  0  0  0  0  0  0
  -24.3976   -0.8364   30.1775 C   0  0  0  0  0  0  0  0  0  0  0  0
  -26.5754   -0.8899   31.2661 C   0  0  0  0  0  0  0  0  0  0  0  0
  -23.6362   -0.9045   29.1560 C   0  0  0  0  0  0  0  0  0  0  0  0
  -22.1750   -0.7187   29.2225 C   0  0  0  0  0  0  0  0  0  0  0  0
  -23.9950   -1.5757   31.4340 C   0  0  0  0  0  0  0  0  0  0  0  0
  -22.4954   -1.1033   31.7307 C   0  0  0  0  0  0  0  0  0  0  0  0
  -21.6802   -0.9089   30.5673 C   0  0  0  0  0  0  0  0  0  0  0  0
  -30.0897   -0.7438   29.8380 C   0  0  0  0  0  0  0  0  0  0  0  0
  -30.7819   -1.5525   30.2906 O   0  0  0  0  0  0  0  0  0  0  0  0
  -30.5839    0.4384   29.5293 O   0  0  0  0  0  0  0  0  0  0  0  0
  -31.7323    0.5826   28.8528 C   0  0  0  0  0  0  0  0  0  0  0  0
  -31.7276    0.4485   27.5640 C   0  0  0  0  0  0  0  0  0  0  0  0
  -30.7056    1.0666   26.8355 C   0  0  0  0  0  0  0  0  0  0  0  0
  -30.0430    1.8773   27.3001 N   0  0  0  0  0  0  0  0  0  0  0  0
  4  6  1  0
  2 13  1  0
 13 14  2  0
 13 15  1  0
 15 16  1  0
 16 17  1  0
 17 18  1  0
 18 19  2  0
  6  8  2  0
  8  9  1  0
  9 12  2  0
 12 11  1  0
 11 10  2  0
 10  6  1  0
  1  2  2  0
  2  5  1  0
  5  7  2  0
  7  4  1  0
  4  3  2  0
  3  1  1  0
M  END

$$$$
