No_3021-gen_results/8p0m/2024-11-27-11-27-31/
     RDKit          3D

 32 35  0  0  0  0  0  0  0  0999 V2000
  -28.0162   -0.8135   28.8779 C   0  0  0  0  0  0  0  0  0  0  0  0
  -27.0636   -0.1189   28.6079 C   0  0  0  0  0  0  0  0  0  0  0  0
  -25.7923   -0.4302   29.0761 C   0  0  0  0  0  0  0  0  0  0  0  0
  -25.5314   -1.5875   29.6105 C   0  0  0  0  0  0  0  0  0  0  0  0
  -26.6366   -2.4336   29.9654 C   0  0  0  0  0  0  0  0  0  0  0  0
  -27.8411   -2.0285   29.6196 C   0  0  0  0  0  0  0  0  0  0  0  0
  -26.9598    1.2190   27.8485 C   0  0  0  0  0  0  0  0  0  0  0  0
  -27.7846    1.5798   27.1567 C   0  0  0  0  0  0  0  0  0  0  0  0
  -27.6814    2.7765   26.3236 C   0  0  0  0  0  0  0  0  0  0  0  0
  -26.4678    3.5348   26.3483 C   0  0  0  0  0  0  0  0  0  0  0  0
  -25.4277    3.0567   27.1240 C   0  0  0  0  0  0  0  0  0  0  0  0
  -25.5939    1.9304   27.8823 C   0  0  0  0  0  0  0  0  0  0  0  0
  -24.4398    1.4846   28.6168 C   0  0  0  0  0  0  0  0  0  0  0  0
  -24.5681    0.3642   29.0134 C   0  0  0  0  0  0  0  0  0  0  0  0
  -29.2515   -0.4823   28.5298 O   0  0  0  0  0  0  0  0  0  0  0  0
  -30.2814   -0.6360   29.3155 C   0  0  0  0  0  0  0  0  0  0  0  0
  -31.4189   -0.8484   28.6010 C   0  0  0  0  0  0  0  0  0  0  0  0
  -31.5738   -0.4551   27.5210 O   0  0  0  0  0  0  0  0  0  0  0  0
  -32.4817   -1.2144   29.2462 O   0  0  0  0  0  0  0  0  0  0  0  0
  -30.1912   -0.5322   30.5539 O   0  0  0  0  0  0  0  0  0  0  0  0
  -23.9400    3.9014   27.1341 Cl  0  0  0  0  0  0  0  0  0  0  0  0
  -28.8228    3.2800   25.5561 C   0  0  0  0  0  0  0  0  0  0  0  0
  -29.2202    2.6039   24.4918 C   0  0  0  0  0  0  0  0  0  0  0  0
  -30.2724    1.9772   24.4822 C   0  0  0  0  0  0  0  0  0  0  0  0
  -30.9275    1.4413   23.2742 C   0  0  0  0  0  0  0  0  0  0  0  0
  -32.1260    0.7613   23.3498 C   0  0  0  0  0  0  0  0  0  0  0  0
  -32.7428    0.5600   24.5340 C   0  0  0  0  0  0  0  0  0  0  0  0
  -32.3077    1.2235   25.6730 C   0  0  0  0  0  0  0  0  0  0  0  0
  -31.1174    1.8603   25.6941 C   0  0  0  0  0  0  0  0  0  0  0  0
  -29.4679    4.5170   25.9874 C   0  0  0  0  0  0  0  0  0  0  0  0
  -28.2083    2.4173   23.4251 C   0  0  0  0  0  0  0  0  0  0  0  0
  -28.8758    5.4647   26.3493 O   0  0  0  0  0  0  0  0  0  0  0  0
  1 15  1  0
 15 16  1  0
 16 17  1  0
 17 18  1  0
 17 19  2  0
 16 20  2  0
 11 21  1  0
  9 22  1  0
 22 23  1  0
 22 30  1  0
 23 31  1  0
 30 32  2  0
 23 24  1  0
  1  2  2  0
  3  4  2  0
  4  5  1  0
  5  6  2  0
  6  1  1  0
 24 25  2  0
 25 26  1  0
 26 27  2  0
 27 28  1  0
 28 29  2  0
 29 24  1  0
  2  3  1  0
  3 14  1  0
 14 13  2  0
 13 12  1  0
  7  2  1  0
  7  8  2  0
  8  9  1  0
  9 10  2  0
 10 11  1  0
 11 12  2  0
 12  7  1  0
M  END

$$$$
