No_3818-gen_results/8p0m/2024-11-27-11-27-31/
     RDKit          3D

 14 14  0  0  0  0  0  0  0  0999 V2000
  -28.0162   -0.8135   28.8779 C   0  0  0  0  0  0  0  0  0  0  0  0
  -27.0636   -0.1190   28.6079 C   0  0  0  0  0  0  0  0  0  0  0  0
  -26.8756    1.1325   28.9134 C   0  0  0  0  0  0  0  0  0  0  0  0
  -25.6883    1.9515   28.5672 C   0  0  0  0  0  0  0  0  0  0  0  0
  -24.6394    1.2834   27.8753 C   0  0  0  0  0  0  0  0  0  0  0  0
  -24.8068   -0.0513   27.6040 C   0  0  0  0  0  0  0  0  0  0  0  0
  -25.9019   -0.7670   27.9511 C   0  0  0  0  0  0  0  0  0  0  0  0
  -29.2125   -0.1153   29.1222 C   0  0  0  0  0  0  0  0  0  0  0  0
  -30.3508   -0.8179   29.5782 C   0  0  0  0  0  0  0  0  0  0  0  0
  -23.4272    1.9807   27.5087 C   0  0  0  0  0  0  0  0  0  0  0  0
  -23.3080    2.7273   26.6510 O   0  0  0  0  0  0  0  0  0  0  0  0
  -22.3521    1.7919   28.3897 O   0  0  0  0  0  0  0  0  0  0  0  0
  -30.1751   -2.1061   30.0586 C   0  0  0  0  0  0  0  0  0  0  0  0
  -28.9499   -2.7439   30.1420 C   0  0  0  0  0  0  0  0  0  0  0  0
  1  8  1  0
  8  9  2  3
  5 10  1  0
 10 11  2  0
 10 12  1  0
  9 13  1  0
 13 14  2  0
  1  2  1  0
  2  3  2  0
  3  4  1  0
  4  5  2  0
  5  6  1  0
  6  7  2  0
  7  2  1  0
M  END

$$$$
