No_3264-gen_results/8p0m/2024-11-27-11-27-31/
     RDKit          3D

 10 10  0  0  0  0  0  0  0  0999 V2000
  -28.0162   -0.8135   28.8779 C   0  0  0  0  0  0  0  0  0  0  0  0
  -28.4690   -0.7850   29.8287 C   0  0  0  0  0  0  0  0  0  0  0  0
  -26.5042   -0.7777   28.8766 C   0  0  0  0  0  0  0  0  0  0  0  0
  -25.9150   -0.6580   29.9230 C   0  0  0  0  0  0  0  0  0  0  0  0
  -30.0078   -0.8570   29.8768 C   0  0  0  0  0  0  0  0  0  0  0  0
  -26.5279   -0.6329   31.1908 C   0  0  0  0  0  0  0  0  0  0  0  0
  -27.9294   -0.7307   31.1655 C   0  0  0  0  0  0  0  0  0  0  0  0
  -30.7181    0.0328   30.4857 N   0  0  0  0  0  0  0  0  0  0  0  0
  -31.9514    0.1031   30.6038 C   0  0  0  0  0  0  0  0  0  0  0  0
  -32.6005    1.2131   31.2606 C   0  0  0  0  0  0  0  0  0  0  0  0
  2  5  1  0
  5  8  1  0
  8  9  1  0
  9 10  2  0
  1  2  2  0
  2  7  1  0
  7  6  2  0
  6  4  1  0
  4  3  2  0
  3  1  1  0
M  END

$$$$
