No_3928-gen_results/8p0m/2024-11-27-11-27-31/
     RDKit          3D

 13 13  0  0  0  0  0  0  0  0999 V2000
  -28.1493   -0.8198   28.9079 Cl  0  0  0  0  0  0  0  0  0  0  0  0
  -26.9116   -0.0797   28.9452 C   0  0  0  0  0  0  0  0  0  0  0  0
  -25.9665   -0.2123   29.6235 C   0  0  0  0  0  0  0  0  0  0  0  0
  -24.7040    0.5534   29.6218 C   0  0  0  0  0  0  0  0  0  0  0  0
  -24.6011    1.5437   28.6212 C   0  0  0  0  0  0  0  0  0  0  0  0
  -25.6671    1.7162   27.8026 C   0  0  0  0  0  0  0  0  0  0  0  0
  -26.7607    0.9618   27.8836 C   0  0  0  0  0  0  0  0  0  0  0  0
  -23.5246    2.2838   28.6050 F   0  0  0  0  0  0  0  0  0  0  0  0
  -27.8460    1.1988   26.8864 C   0  0  0  0  0  0  0  0  0  0  0  0
  -27.5930    1.0777   25.6823 N   0  0  0  0  0  0  0  0  0  0  0  0
  -26.4464    0.6416   25.2084 C   0  0  0  0  0  0  0  0  0  0  0  0
  -28.6835    0.7149   24.7513 C   0  0  0  0  0  0  0  0  0  0  0  0
  -28.5172    2.4682   27.2137 C   0  0  0  0  0  0  0  0  0  0  0  0
  1  2  1  0
  5  8  1  0
  7  9  1  0
  9 10  1  0
 10 11  1  0
 10 12  1  0
  9 13  1  0
  2  3  2  0
  3  4  1  0
  4  5  2  0
  5  6  1  0
  6  7  2  0
  7  2  1  0
M  END

$$$$
