No_3514-gen_results/8p0m/2024-11-27-11-27-31/
     RDKit          3D

 18 20  0  0  0  0  0  0  0  0999 V2000
  -28.0162   -0.8135   28.8779 C   0  0  0  0  0  0  0  0  0  0  0  0
  -28.4690   -0.7850   29.8287 C   0  0  0  0  0  0  0  0  0  0  0  0
  -27.1356    0.2359   28.5352 C   0  0  0  0  0  0  0  0  0  0  0  0
  -26.8745    1.2825   29.3982 C   0  0  0  0  0  0  0  0  0  0  0  0
  -28.3613    0.1987   30.9244 C   0  0  0  0  0  0  0  0  0  0  0  0
  -27.5277    1.2234   30.6356 C   0  0  0  0  0  0  0  0  0  0  0  0
  -26.3987    0.2949   27.2279 C   0  0  0  0  0  0  0  0  0  0  0  0
  -25.0392    0.2356   27.3538 C   0  0  0  0  0  0  0  0  0  0  0  0
  -27.0287    0.3958   26.0087 C   0  0  0  0  0  0  0  0  0  0  0  0
  -28.3713    0.5360   25.8782 C   0  0  0  0  0  0  0  0  0  0  0  0
  -29.1580    0.8966   26.9253 C   0  0  0  0  0  0  0  0  0  0  0  0
  -30.6295    1.0814   26.5568 C   0  0  0  0  0  0  0  0  0  0  0  0
  -30.9651    0.9277   25.2715 C   0  0  0  0  0  0  0  0  0  0  0  0
  -28.9392    0.5080   24.5773 C   0  0  0  0  0  0  0  0  0  0  0  0
  -30.1855    0.6960   24.2638 C   0  0  0  0  0  0  0  0  0  0  0  0
  -26.1494    0.3537   24.8798 C   0  0  0  0  0  0  0  0  0  0  0  0
  -24.7645    0.3322   25.0558 C   0  0  0  0  0  0  0  0  0  0  0  0
  -24.2148    0.2443   26.2515 C   0  0  0  0  0  0  0  0  0  0  0  0
  3  7  1  0
  9 10  1  0
  7  8  2  0
  8 18  1  0
 18 17  2  0
 17 16  1  0
 16  9  2  0
  9  7  1  0
 10 11  2  0
 11 12  1  0
 12 13  2  0
 13 15  1  0
 15 14  2  0
 14 10  1  0
  1  2  2  0
  2  5  1  0
  5  6  2  0
  6  4  1  0
  4  3  2  0
  3  1  1  0
M  END

$$$$
