No_3219-gen_results/8p0m/2024-11-27-11-27-31/
     RDKit          3D

 20 22  0  0  0  0  0  0  0  0999 V2000
  -28.0162   -0.8135   28.8779 C   0  0  0  0  0  0  0  0  0  0  0  0
  -28.4690   -0.7850   29.8287 C   0  0  0  0  0  0  0  0  0  0  0  0
  -28.1960    0.3478   28.0550 C   0  0  0  0  0  0  0  0  0  0  0  0
  -29.0191    1.3501   28.3782 C   0  0  0  0  0  0  0  0  0  0  0  0
  -29.6249    1.2683   29.6012 C   0  0  0  0  0  0  0  0  0  0  0  0
  -29.3791    0.1470   30.3923 C   0  0  0  0  0  0  0  0  0  0  0  0
  -27.4550    0.3821   26.7102 C   0  0  0  0  0  0  0  0  0  0  0  0
  -26.0156    0.4242   26.8243 C   0  0  0  0  0  0  0  0  0  0  0  0
  -25.3311   -0.0592   27.8790 C   0  0  0  0  0  0  0  0  0  0  0  0
  -23.9601    0.1638   28.0315 C   0  0  0  0  0  0  0  0  0  0  0  0
  -23.1836   -0.3569   29.1483 C   0  0  0  0  0  0  0  0  0  0  0  0
  -21.8449    0.0236   29.3147 C   0  0  0  0  0  0  0  0  0  0  0  0
  -21.2630    0.9060   28.3618 C   0  0  0  0  0  0  0  0  0  0  0  0
  -22.0459    1.5271   27.3672 C   0  0  0  0  0  0  0  0  0  0  0  0
  -23.3534    1.2257   27.2873 C   0  0  0  0  0  0  0  0  0  0  0  0
  -25.3762    1.2502   25.8303 C   0  0  0  0  0  0  0  0  0  0  0  0
  -24.0973    1.7430   26.1465 C   0  0  0  0  0  0  0  0  0  0  0  0
  -28.1761    0.2929   25.5567 C   0  0  0  0  0  0  0  0  0  0  0  0
  -28.5378    1.1456   25.0837 O   0  0  0  0  0  0  0  0  0  0  0  0
  -28.3468   -0.8731   25.0734 O   0  0  0  0  0  0  0  0  0  0  0  0
  3  7  1  0
  7  8  1  0
  7 18  1  0
 18 19  2  0
 18 20  1  0
  8  9  2  0
  9 10  1  0
 15 17  1  0
 17 16  2  0
 16  8  1  0
  1  2  2  0
  2  6  1  0
  6  5  2  0
  5  4  1  0
  4  3  2  0
  3  1  1  0
 10 11  2  0
 11 12  1  0
 12 13  2  0
 13 14  1  0
 14 15  2  0
 15 10  1  0
M  END

$$$$
