No_3338-gen_results/8p0m/2024-11-27-11-27-31/
     RDKit          3D

 18 20  0  0  0  0  0  0  0  0999 V2000
  -28.0162   -0.8135   28.8779 C   0  0  0  0  0  0  0  0  0  0  0  0
  -28.4690   -0.7850   29.8287 C   0  0  0  0  0  0  0  0  0  0  0  0
  -27.1356    0.2359   28.5352 C   0  0  0  0  0  0  0  0  0  0  0  0
  -26.8745    1.2825   29.3982 C   0  0  0  0  0  0  0  0  0  0  0  0
  -28.3613    0.1987   30.9244 C   0  0  0  0  0  0  0  0  0  0  0  0
  -27.5277    1.2234   30.6356 C   0  0  0  0  0  0  0  0  0  0  0  0
  -26.3987    0.2949   27.2279 C   0  0  0  0  0  0  0  0  0  0  0  0
  -25.0392    0.2356   27.3538 C   0  0  0  0  0  0  0  0  0  0  0  0
  -24.4371    0.0058   28.5831 C   0  0  0  0  0  0  0  0  0  0  0  0
  -23.2757    0.6117   28.9811 C   0  0  0  0  0  0  0  0  0  0  0  0
  -22.6678    1.5871   28.0424 C   0  0  0  0  0  0  0  0  0  0  0  0
  -23.2591    1.8553   26.8202 C   0  0  0  0  0  0  0  0  0  0  0  0
  -24.4772    1.3081   26.4954 C   0  0  0  0  0  0  0  0  0  0  0  0
  -27.0874    0.1817   26.0421 C   0  0  0  0  0  0  0  0  0  0  0  0
  -27.8601   -0.5065   25.8981 F   0  0  0  0  0  0  0  0  0  0  0  0
  -26.7259    1.2032   25.1015 C   0  0  0  0  0  0  0  0  0  0  0  0
  -25.2349    1.5548   25.1977 C   0  0  0  0  0  0  0  0  0  0  0  0
  -22.5377    0.2830   29.9845 F   0  0  0  0  0  0  0  0  0  0  0  0
  3  7  1  0
 14 15  1  0
 10 18  1  0
  8  9  2  0
  9 10  1  0
 10 11  2  0
 11 12  1  0
 12 13  2  0
  1  2  2  0
  2  5  1  0
  5  6  2  0
  6  4  1  0
  4  3  2  0
  3  1  1  0
  7  8  1  0
  8 13  1  0
 13 17  1  0
 17 16  2  0
 16 14  1  0
 14  7  2  0
M  END

$$$$
