No_3540-gen_results/8p0m/2024-11-27-11-27-31/
     RDKit          3D

 21 22  0  0  0  0  0  0  0  0999 V2000
  -28.0162   -0.8135   28.8779 C   0  0  0  0  0  0  0  0  0  0  0  0
  -27.0636   -0.1189   28.6079 C   0  0  0  0  0  0  0  0  0  0  0  0
  -27.0010    0.6913   27.4910 C   0  0  0  0  0  0  0  0  0  0  0  0
  -25.8548    1.4825   27.0830 C   0  0  0  0  0  0  0  0  0  0  0  0
  -24.9008    1.3894   27.5922 C   0  0  0  0  0  0  0  0  0  0  0  0
  -24.6783    0.5764   28.8299 C   0  0  0  0  0  0  0  0  0  0  0  0
  -25.7704   -0.2051   29.2800 C   0  0  0  0  0  0  0  0  0  0  0  0
  -29.2555   -0.1222   29.3359 C   0  0  0  0  0  0  0  0  0  0  0  0
  -29.3838    1.0766   29.0079 C   0  0  0  0  0  0  0  0  0  0  0  0
  -30.2643    1.8473   29.6489 C   0  0  0  0  0  0  0  0  0  0  0  0
  -30.4209    3.2588   29.4386 C   0  0  0  0  0  0  0  0  0  0  0  0
  -29.6519    3.7795   28.3647 C   0  0  0  0  0  0  0  0  0  0  0  0
  -28.8206    3.0200   27.6471 C   0  0  0  0  0  0  0  0  0  0  0  0
  -28.6263    1.6704   27.9787 C   0  0  0  0  0  0  0  0  0  0  0  0
  -29.3567    1.1510   26.5062 C   0  0  0  0  0  0  0  0  0  0  0  0
  -27.4176   -0.0742   26.4515 F   0  0  0  0  0  0  0  0  0  0  0  0
  -28.4145    2.0940   26.8464 Br  0  0  0  0  0  0  0  0  0  0  0  0
  -30.7477    1.5298   26.4998 C   0  0  0  0  0  0  0  0  0  0  0  0
  -29.1508    0.0739   25.5951 C   0  0  0  0  0  0  0  0  0  0  0  0
  -30.7025    0.8739   26.3716 C   0  0  0  0  0  0  0  0  0  0  0  0
  -31.2488   -0.4392   26.1637 C   0  0  0  0  0  0  0  0  0  0  0  0
  1  2  1  0
  1  8  2  3
  8  9  1  0
  9 10  2  0
 10 11  1  0
 11 12  2  0
 12 13  1  0
  9 14  1  0
 13 14  1  0
 14 15  1  0
  3 16  1  0
 14 17  1  0
 15 18  1  0
 15 19  1  0
 18 20  1  0
 20 21  2  0
  2  3  2  0
  3  4  1  0
  4  5  2  0
  5  6  1  0
  6  7  2  0
  7  2  1  0
M  END

$$$$
