No_3465-gen_results/8p0m/2024-11-27-11-27-31/
     RDKit          3D

 10 10  0  0  0  0  0  0  0  0999 V2000
  -28.1493   -0.8198   28.9079 Cl  0  0  0  0  0  0  0  0  0  0  0  0
  -26.9116   -0.0797   28.9452 C   0  0  0  0  0  0  0  0  0  0  0  0
  -26.7384    1.0439   29.2534 C   0  0  0  0  0  0  0  0  0  0  0  0
  -25.4392    1.7115   29.2755 C   0  0  0  0  0  0  0  0  0  0  0  0
  -24.2812    0.9888   28.8542 C   0  0  0  0  0  0  0  0  0  0  0  0
  -24.4869   -0.3041   28.4957 C   0  0  0  0  0  0  0  0  0  0  0  0
  -25.7046   -0.8667   28.5244 C   0  0  0  0  0  0  0  0  0  0  0  0
  -23.0486    1.5905   28.8052 N   0  0  0  0  0  0  0  0  0  0  0  0
  -21.9497    0.8756   28.4281 C   0  0  0  0  0  0  0  0  0  0  0  0
  -20.8456    1.5287   28.1362 N   0  0  0  0  0  0  0  0  0  0  0  0
  1  2  1  0
  5  8  1  0
  8  9  2  3
  9 10  1  0
  2  3  2  0
  3  4  1  0
  4  5  2  0
  5  6  1  0
  6  7  2  0
  7  2  1  0
M  END

$$$$
