No_319-gen_results/8p0m/2024-11-27-11-27-31/
     RDKit          3D

 31 34  0  0  0  0  0  0  0  0999 V2000
  -28.0162   -0.8135   28.8779 C   0  0  0  0  0  0  0  0  0  0  0  0
  -28.4690   -0.7850   29.8287 C   0  0  0  0  0  0  0  0  0  0  0  0
  -27.0871    0.2903   28.6377 C   0  0  0  0  0  0  0  0  0  0  0  0
  -26.2516    0.4114   27.4223 C   0  0  0  0  0  0  0  0  0  0  0  0
  -28.3913    0.1041   30.9805 C   0  0  0  0  0  0  0  0  0  0  0  0
  -27.5332    1.1666   30.7866 C   0  0  0  0  0  0  0  0  0  0  0  0
  -26.8281    1.2557   29.6454 C   0  0  0  0  0  0  0  0  0  0  0  0
  -25.6445    1.6653   27.2216 C   0  0  0  0  0  0  0  0  0  0  0  0
  -25.4280    2.5904   28.2367 C   0  0  0  0  0  0  0  0  0  0  0  0
  -26.1083    2.4673   29.4212 C   0  0  0  0  0  0  0  0  0  0  0  0
  -25.8895    3.5298   30.4284 C   0  0  0  0  0  0  0  0  0  0  0  0
  -26.9119    3.7269   31.1583 O   0  0  0  0  0  0  0  0  0  0  0  0
  -24.7890    4.0314   30.6483 O   0  0  0  0  0  0  0  0  0  0  0  0
  -29.3584   -1.9505   30.1609 O   0  0  0  0  0  0  0  0  0  0  0  0
  -29.6460   -2.2645   31.4614 C   0  0  0  0  0  0  0  0  0  0  0  0
  -30.2300   -1.3262   32.1818 C   0  0  0  0  0  0  0  0  0  0  0  0
  -29.1531   -0.1374   32.3283 C   0  0  0  0  0  0  0  0  0  0  0  0
  -31.4149   -0.7788   31.6080 O   0  0  0  0  0  0  0  0  0  0  0  0
  -31.5994    0.4068   31.4291 C   0  0  0  0  0  0  0  0  0  0  0  0
  -32.9101    0.7921   30.9816 C   0  0  0  0  0  0  0  0  0  0  0  0
  -33.1981    1.4056   30.2351 C   0  0  0  0  0  0  0  0  0  0  0  0
  -32.3205    2.5596   29.6416 C   0  0  0  0  0  0  0  0  0  0  0  0
  -30.9623    2.3186   30.0541 C   0  0  0  0  0  0  0  0  0  0  0  0
  -30.6288    1.0774   30.3568 C   0  0  0  0  0  0  0  0  0  0  0  0
  -31.1029    0.4736   28.9524 C   0  0  0  0  0  0  0  0  0  0  0  0
  -30.5812    1.0773   27.8113 C   0  0  0  0  0  0  0  0  0  0  0  0
  -30.7234    0.3807   26.5306 C   0  0  0  0  0  0  0  0  0  0  0  0
  -30.0985    0.9008   25.4410 C   0  0  0  0  0  0  0  0  0  0  0  0
  -30.1123    0.1661   24.2238 C   0  0  0  0  0  0  0  0  0  0  0  0
  -30.7375   -1.0876   24.1716 C   0  0  0  0  0  0  0  0  0  0  0  0
  -31.3638   -1.5882   25.3013 C   0  0  0  0  0  0  0  0  0  0  0  0
 10 11  1  0
 11 12  1  0
 11 13  2  0
  2 14  1  0
 14 15  1  0
 15 16  1  0
  5 17  1  0
 16 17  1  0
 16 18  1  0
 18 19  1  0
 24 25  1  0
 25 26  2  3
 26 27  1  0
 27 28  2  3
 28 29  1  0
 29 30  2  3
 30 31  1  0
  1  2  2  0
  2  5  1  0
  5  6  2  0
  6  7  1  0
  3  1  1  0
 19 20  2  0
 20 21  1  0
 21 22  2  0
 22 23  1  0
 23 24  2  0
 24 19  1  0
  3  4  2  0
  4  8  1  0
  8  9  2  0
  9 10  1  0
 10  7  2  0
  7  3  1  0
M  END

$$$$
