No_3427-gen_results/8p0m/2024-11-27-11-27-31/
     RDKit          3D

 16 17  0  0  0  0  0  0  0  0999 V2000
  -28.0162   -0.8135   28.8779 C   0  0  0  0  0  0  0  0  0  0  0  0
  -28.4690   -0.7850   29.8287 C   0  0  0  0  0  0  0  0  0  0  0  0
  -27.1356    0.2359   28.5352 C   0  0  0  0  0  0  0  0  0  0  0  0
  -26.8745    1.2825   29.3982 C   0  0  0  0  0  0  0  0  0  0  0  0
  -27.5070    1.2380   30.6295 C   0  0  0  0  0  0  0  0  0  0  0  0
  -28.3293    0.1745   30.9350 C   0  0  0  0  0  0  0  0  0  0  0  0
  -26.4077    0.3070   27.2259 C   0  0  0  0  0  0  0  0  0  0  0  0
  -25.1258    0.2690   27.2739 N   0  0  0  0  0  0  0  0  0  0  0  0
  -24.3923   -0.4758   28.1001 C   0  0  0  0  0  0  0  0  0  0  0  0
  -23.3758    0.0299   28.9978 C   0  0  0  0  0  0  0  0  0  0  0  0
  -22.5744   -0.8012   29.7100 C   0  0  0  0  0  0  0  0  0  0  0  0
  -22.9287   -2.1432   29.7277 C   0  0  0  0  0  0  0  0  0  0  0  0
  -24.5599   -1.8698   28.3133 C   0  0  0  0  0  0  0  0  0  0  0  0
  -23.8687   -2.6775   29.0422 C   0  0  0  0  0  0  0  0  0  0  0  0
  -24.3397    0.5973   26.0459 C   0  0  0  0  0  0  0  0  0  0  0  0
  -27.1162    0.4558   26.2562 O   0  0  0  0  0  0  0  0  0  0  0  0
  3  7  1  0
  7  8  1  0
  8  9  1  0
  8 15  1  0
  7 16  2  0
  1  2  2  0
  2  6  1  0
  6  5  2  0
  5  4  1  0
  4  3  2  0
  3  1  1  0
  9 10  2  0
 10 11  1  0
 11 12  2  0
 12 14  1  0
 14 13  2  0
 13  9  1  0
M  END

$$$$
