No_3194-gen_results/8p0m/2024-11-27-11-27-31/
     RDKit          3D

 18 19  0  0  0  0  0  0  0  0999 V2000
  -28.0162   -0.8135   28.8779 C   0  0  0  0  0  0  0  0  0  0  0  0
  -27.0636   -0.1190   28.6079 C   0  0  0  0  0  0  0  0  0  0  0  0
  -25.8176   -0.3427   29.0488 N   0  0  0  0  0  0  0  0  0  0  0  0
  -24.6757    0.3814   28.7496 C   0  0  0  0  0  0  0  0  0  0  0  0
  -24.7608    1.3095   27.7159 C   0  0  0  0  0  0  0  0  0  0  0  0
  -27.1776    0.9693   27.6449 C   0  0  0  0  0  0  0  0  0  0  0  0
  -23.5364    2.0558   27.3154 C   0  0  0  0  0  0  0  0  0  0  0  0
  -26.0049    1.6907   27.1492 C   0  0  0  0  0  0  0  0  0  0  0  0
  -22.4832    2.0131   28.0979 N   0  0  0  0  0  0  0  0  0  0  0  0
  -23.3815    2.6468   26.0304 C   0  0  0  0  0  0  0  0  0  0  0  0
  -27.9195   -1.5105   30.2257 C   0  0  0  0  0  0  0  0  0  0  0  0
  -29.0605   -2.1258   30.7763 C   0  0  0  0  0  0  0  0  0  0  0  0
  -30.2579   -1.9596   30.1560 C   0  0  0  0  0  0  0  0  0  0  0  0
  -30.3767   -1.1622   29.0907 C   0  0  0  0  0  0  0  0  0  0  0  0
  -29.2972   -0.3128   28.7423 C   0  0  0  0  0  0  0  0  0  0  0  0
  -31.6200   -0.8672   28.6287 O   0  0  0  0  0  0  0  0  0  0  0  0
  -31.8340   -0.1881   27.6784 C   0  0  0  0  0  0  0  0  0  0  0  0
  -31.5641   -0.1043   26.4378 C   0  0  0  0  0  0  0  0  0  0  0  0
  1  2  1  0
  5  7  1  0
  7  9  2  0
  7 10  1  0
 14 16  1  0
 16 17  1  0
 17 18  2  0
  1 11  2  0
 11 12  1  0
 12 13  2  0
 13 14  1  0
 14 15  2  0
 15  1  1  0
  2  3  2  0
  3  4  1  0
  4  5  2  0
  5  8  1  0
  8  6  2  0
  6  2  1  0
M  END

$$$$
