No_3149-gen_results/8p0m/2024-11-27-11-27-31/
     RDKit          3D

 28 31  0  0  0  0  0  0  0  0999 V2000
  -28.0162   -0.8135   28.8779 C   0  0  0  0  0  0  0  0  0  0  0  0
  -28.4690   -0.7850   29.8287 C   0  0  0  0  0  0  0  0  0  0  0  0
  -28.7063   -0.5182   27.8769 F   0  0  0  0  0  0  0  0  0  0  0  0
  -26.5857   -0.9572   28.6898 C   0  0  0  0  0  0  0  0  0  0  0  0
  -25.7973   -1.4978   29.7457 C   0  0  0  0  0  0  0  0  0  0  0  0
  -27.7774   -1.3235   31.1489 C   0  0  0  0  0  0  0  0  0  0  0  0
  -26.3941   -1.5854   31.0152 C   0  0  0  0  0  0  0  0  0  0  0  0
  -24.3852   -1.7533   29.6027 C   0  0  0  0  0  0  0  0  0  0  0  0
  -23.4170   -1.0396   29.8356 C   0  0  0  0  0  0  0  0  0  0  0  0
  -22.1336   -1.0598   29.2416 C   0  0  0  0  0  0  0  0  0  0  0  0
  -24.0510   -3.1408   29.1538 C   0  0  0  0  0  0  0  0  0  0  0  0
  -24.9972   -4.0995   28.8447 C   0  0  0  0  0  0  0  0  0  0  0  0
  -21.6282    0.0291   28.6124 C   0  0  0  0  0  0  0  0  0  0  0  0
  -22.3502    0.9790   27.9460 C   0  0  0  0  0  0  0  0  0  0  0  0
  -23.7050    1.3039   28.3251 C   0  0  0  0  0  0  0  0  0  0  0  0
  -24.4670    2.3026   27.7400 C   0  0  0  0  0  0  0  0  0  0  0  0
  -25.3785    3.0328   28.5270 C   0  0  0  0  0  0  0  0  0  0  0  0
  -26.2388    3.9344   27.9426 C   0  0  0  0  0  0  0  0  0  0  0  0
  -24.6876    2.4038   26.4098 C   0  0  0  0  0  0  0  0  0  0  0  0
  -25.4832    3.3567   25.7764 C   0  0  0  0  0  0  0  0  0  0  0  0
  -26.2488    4.1356   26.6294 C   0  0  0  0  0  0  0  0  0  0  0  0
  -24.2000    0.5093   29.5467 C   0  0  0  0  0  0  0  0  0  0  0  0
  -24.5307   -5.4666   28.8065 C   0  0  0  0  0  0  0  0  0  0  0  0
  -25.5870   -6.3596   28.6482 C   0  0  0  0  0  0  0  0  0  0  0  0
  -26.6271   -5.9757   29.0808 N   0  0  0  0  0  0  0  0  0  0  0  0
  -27.0837   -4.7171   29.5827 C   0  0  0  0  0  0  0  0  0  0  0  0
  -26.1832   -3.8064   29.5301 C   0  0  0  0  0  0  0  0  0  0  0  0
  -28.3547   -4.6684   29.9731 O   0  0  0  0  0  0  0  0  0  0  0  0
  1  3  1  0
  5  8  1  0
  8  9  1  0
  8 11  1  0
 11 12  1  0
 15 16  1  0
 23 24  1  0
 25 26  1  0
 12 27  1  0
 26 27  1  0
 26 28  2  0
 25 24  1  0
 23 12  1  0
  9 10  2  0
 10 13  1  0
 13 14  2  0
 14 15  1  0
 15 22  2  0
 22  9  1  0
 16 17  2  0
 17 18  1  0
 18 21  2  0
 21 20  1  0
 20 19  2  0
 19 16  1  0
  1  2  2  0
  2  6  1  0
  6  7  2  0
  7  5  1  0
  5  4  2  0
  4  1  1  0
M  END

$$$$
