No_3466-gen_results/8p0m/2024-11-27-11-27-31/
     RDKit          3D

 26 27  0  0  0  0  0  0  0  0999 V2000
  -28.0162   -0.8135   28.8779 C   0  0  0  0  0  0  0  0  0  0  0  0
  -28.4690   -0.7850   29.8287 C   0  0  0  0  0  0  0  0  0  0  0  0
  -27.1356    0.2359   28.5352 C   0  0  0  0  0  0  0  0  0  0  0  0
  -26.8745    1.2825   29.3982 C   0  0  0  0  0  0  0  0  0  0  0  0
  -28.3613    0.1987   30.9244 C   0  0  0  0  0  0  0  0  0  0  0  0
  -27.5277    1.2234   30.6356 C   0  0  0  0  0  0  0  0  0  0  0  0
  -26.3879    0.2914   27.2334 C   0  0  0  0  0  0  0  0  0  0  0  0
  -25.7787   -0.5228   27.0339 F   0  0  0  0  0  0  0  0  0  0  0  0
  -27.4096    0.4971   26.2409 F   0  0  0  0  0  0  0  0  0  0  0  0
  -25.6634    1.5011   26.9967 F   0  0  0  0  0  0  0  0  0  0  0  0
  -29.3955   -2.0219   30.3178 C   0  0  0  0  0  0  0  0  0  0  0  0
  -29.7730   -2.0119   31.5043 O   0  0  0  0  0  0  0  0  0  0  0  0
  -29.2255   -3.1352   29.7992 O   0  0  0  0  0  0  0  0  0  0  0  0
  -27.2769    2.3370   31.6018 C   0  0  0  0  0  0  0  0  0  0  0  0
  -27.5201    2.4644   32.5862 C   0  0  0  0  0  0  0  0  0  0  0  0
  -27.1923    3.6343   33.5117 C   0  0  0  0  0  0  0  0  0  0  0  0
  -26.4453    4.6661   32.9509 C   0  0  0  0  0  0  0  0  0  0  0  0
  -26.0577    4.5295   31.5975 C   0  0  0  0  0  0  0  0  0  0  0  0
  -26.3871    3.4214   30.8830 C   0  0  0  0  0  0  0  0  0  0  0  0
  -25.9927    6.0163   33.8963 Cl  0  0  0  0  0  0  0  0  0  0  0  0
  -30.0535   -4.2011   30.1229 C   0  0  0  0  0  0  0  0  0  0  0  0
  -29.8025   -4.8077   31.2402 C   0  0  0  0  0  0  0  0  0  0  0  0
  -28.7920   -4.8128   31.6632 O   0  0  0  0  0  0  0  0  0  0  0  0
  -29.7866   -5.2209   28.9432 C   0  0  0  0  0  0  0  0  0  0  0  0
  -30.9886   -5.3203   28.1017 C   0  0  0  0  0  0  0  0  0  0  0  0
  -31.8543   -4.5356   28.1585 O   0  0  0  0  0  0  0  0  0  0  0  0
  3  7  1  0
  7  8  1  0
  7  9  1  0
  7 10  1  0
  2 11  1  0
 11 12  2  0
 11 13  1  0
  6 14  1  0
 17 20  1  0
 13 21  1  0
 21 22  1  0
 22 23  1  0
 21 24  1  0
 24 25  2  3
 25 26  1  0
 14 15  2  0
 15 16  1  0
 16 17  2  0
 17 18  1  0
 18 19  2  0
 19 14  1  0
  1  2  2  0
  2  5  1  0
  5  6  2  0
  6  4  1  0
  4  3  2  0
  3  1  1  0
M  END

$$$$
