No_3995-gen_results/8p0m/2024-11-27-11-27-31/
     RDKit          3D

 22 24  0  0  0  0  0  0  0  0999 V2000
  -28.0162   -0.8135   28.8779 C   0  0  0  0  0  0  0  0  0  0  0  0
  -28.4690   -0.7850   29.8287 C   0  0  0  0  0  0  0  0  0  0  0  0
  -27.1356    0.2359   28.5352 C   0  0  0  0  0  0  0  0  0  0  0  0
  -26.8745    1.2825   29.3982 C   0  0  0  0  0  0  0  0  0  0  0  0
  -27.5070    1.2380   30.6295 C   0  0  0  0  0  0  0  0  0  0  0  0
  -28.3293    0.1745   30.9350 C   0  0  0  0  0  0  0  0  0  0  0  0
  -26.4409    0.0880   27.2474 C   0  0  0  0  0  0  0  0  0  0  0  0
  -26.9306    0.6938   26.0589 C   0  0  0  0  0  0  0  0  0  0  0  0
  -25.1027   -0.4086   27.1966 C   0  0  0  0  0  0  0  0  0  0  0  0
  -28.1972    1.1745   26.0183 C   0  0  0  0  0  0  0  0  0  0  0  0
  -29.0889    0.9610   25.5998 C   0  0  0  0  0  0  0  0  0  0  0  0
  -30.3723    1.6696   25.6147 C   0  0  0  0  0  0  0  0  0  0  0  0
  -26.1421    0.4911   24.8707 C   0  0  0  0  0  0  0  0  0  0  0  0
  -30.4918    2.3184   26.4488 C   0  0  0  0  0  0  0  0  0  0  0  0
  -28.4182    2.4290   27.0700 C   0  0  0  0  0  0  0  0  0  0  0  0
  -29.5325    3.0270   27.1960 C   0  0  0  0  0  0  0  0  0  0  0  0
  -24.5324   -0.7268   28.5610 C   0  0  0  0  0  0  0  0  0  0  0  0
  -24.4060   -1.8242   28.9426 C   0  0  0  0  0  0  0  0  0  0  0  0
  -23.7645   -2.0614   30.2901 C   0  0  0  0  0  0  0  0  0  0  0  0
  -23.4890   -0.9533   31.1182 C   0  0  0  0  0  0  0  0  0  0  0  0
  -24.1297    0.4088   29.4189 C   0  0  0  0  0  0  0  0  0  0  0  0
  -23.5961    0.2851   30.6280 C   0  0  0  0  0  0  0  0  0  0  0  0
  3  7  1  0
  7  8  1  0
  7  9  1  0
  8 10  1  0
  8 13  1  0
  9 17  1  0
  1  2  2  0
  2  6  1  0
  6  5  2  0
  5  4  1  0
  4  3  2  0
  3  1  1  0
 10 11  2  0
 11 12  1  0
 12 14  2  0
 14 16  1  0
 16 15  2  0
 15 10  1  0
 17 18  2  0
 18 19  1  0
 19 20  2  0
 20 22  1  0
 22 21  2  0
 21 17  1  0
M  END

$$$$
