No_3773-gen_results/8p0m/2024-11-27-11-27-31/
     RDKit          3D

 10 10  0  0  0  0  0  0  0  0999 V2000
  -28.1229   -1.3353   28.4874 O   0  0  0  0  0  0  0  0  0  0  0  0
  -27.4806   -0.4044   28.7094 C   0  0  0  0  0  0  0  0  0  0  0  0
  -27.1904    0.2460   29.5268 C   0  0  0  0  0  0  0  0  0  0  0  0
  -26.6871   -0.0001   27.4423 N   0  0  0  0  0  0  0  0  0  0  0  0
  -26.3501    1.4331   29.7418 C   0  0  0  0  0  0  0  0  0  0  0  0
  -26.8217   -0.5498   26.2454 C   0  0  0  0  0  0  0  0  0  0  0  0
  -25.6960    1.7820   28.4808 C   0  0  0  0  0  0  0  0  0  0  0  0
  -25.8569    1.1174   27.3815 C   0  0  0  0  0  0  0  0  0  0  0  0
  -25.2068    1.4709   26.2150 C   0  0  0  0  0  0  0  0  0  0  0  0
  -24.1726    2.5096   26.2937 C   0  0  0  0  0  0  0  0  0  0  0  0
  1  2  2  0
  2  3  1  0
  2  4  1  0
  3  5  1  0
  4  6  1  0
  5  7  1  0
  4  8  1  0
  7  8  1  0
  8  9  1  0
  9 10  2  0
M  END

$$$$
