No_3824-gen_results/8p0m/2024-11-27-11-27-31/
     RDKit          3D

 14 14  0  0  0  0  0  0  0  0999 V2000
  -28.0162   -0.8135   28.8779 C   0  0  0  0  0  0  0  0  0  0  0  0
  -27.0636   -0.1189   28.6079 C   0  0  0  0  0  0  0  0  0  0  0  0
  -26.9716    0.7139   27.5060 C   0  0  0  0  0  0  0  0  0  0  0  0
  -25.8205    1.4910   27.1160 C   0  0  0  0  0  0  0  0  0  0  0  0
  -24.6562    1.4242   27.9180 C   0  0  0  0  0  0  0  0  0  0  0  0
  -24.6847    0.5901   29.0659 C   0  0  0  0  0  0  0  0  0  0  0  0
  -25.8099   -0.1265   29.3338 C   0  0  0  0  0  0  0  0  0  0  0  0
  -27.9662   -1.6794   30.0086 N   0  0  0  0  0  0  0  0  0  0  0  0
  -23.4718    2.1970   27.6168 C   0  0  0  0  0  0  0  0  0  0  0  0
  -22.6206    1.6964   27.1259 F   0  0  0  0  0  0  0  0  0  0  0  0
  -22.9568    2.7342   28.8653 F   0  0  0  0  0  0  0  0  0  0  0  0
  -23.8554    3.3456   26.9615 F   0  0  0  0  0  0  0  0  0  0  0  0
  -28.9953   -2.0584   30.7290 C   0  0  0  0  0  0  0  0  0  0  0  0
  -30.5316   -1.2786   30.6781 Br  0  0  0  0  0  0  0  0  0  0  0  0
  1  2  2  3
  2  3  1  0
  3  4  1  0
  4  5  1  0
  5  6  1  0
  2  7  1  0
  6  7  1  0
  1  8  1  0
  5  9  1  0
  9 10  1  0
  9 11  1  0
  9 12  1  0
  8 13  2  3
 13 14  1  0
M  END

$$$$
