No_3343-gen_results/8p0m/2024-11-27-11-27-31/
     RDKit          3D

 13 13  0  0  0  0  0  0  0  0999 V2000
  -28.0162   -0.8135   28.8779 C   0  0  0  0  0  0  0  0  0  0  0  0
  -27.0636   -0.1189   28.6079 C   0  0  0  0  0  0  0  0  0  0  0  0
  -27.0010    0.6913   27.4910 C   0  0  0  0  0  0  0  0  0  0  0  0
  -28.1373    0.7363   26.6350 C   0  0  0  0  0  0  0  0  0  0  0  0
  -29.2360    0.0765   27.0690 C   0  0  0  0  0  0  0  0  0  0  0  0
  -29.2177   -0.6429   28.1747 C   0  0  0  0  0  0  0  0  0  0  0  0
  -28.0326   -1.5744   30.0419 O   0  0  0  0  0  0  0  0  0  0  0  0
  -30.3509    0.1520   26.2418 N   0  0  0  0  0  0  0  0  0  0  0  0
  -25.7165   -0.1980   29.4285 C   0  0  0  0  0  0  0  0  0  0  0  0
  -24.8756   -1.1944   29.1256 C   0  0  0  0  0  0  0  0  0  0  0  0
  -23.6486   -1.3007   29.6555 C   0  0  0  0  0  0  0  0  0  0  0  0
  -23.1680   -0.3286   30.5511 C   0  0  0  0  0  0  0  0  0  0  0  0
  -24.1448    0.6891   30.9373 C   0  0  0  0  0  0  0  0  0  0  0  0
  1  7  1  0
  5  8  1  0
  2  9  1  0
  9 10  3  0
 10 11  1  0
 11 12  2  3
 12 13  1  0
  1  2  2  0
  2  3  1  0
  3  4  2  0
  4  5  1  0
  5  6  2  0
  6  1  1  0
M  END

$$$$
