No_3074-gen_results/8p0m/2024-11-27-11-27-31/
     RDKit          3D

 21 22  0  0  0  0  0  0  0  0999 V2000
  -28.0162   -0.8135   28.8779 C   0  0  0  0  0  0  0  0  0  0  0  0
  -28.4690   -0.7850   29.8287 C   0  0  0  0  0  0  0  0  0  0  0  0
  -27.0871    0.2903   28.6377 C   0  0  0  0  0  0  0  0  0  0  0  0
  -26.8317    1.2487   29.5869 C   0  0  0  0  0  0  0  0  0  0  0  0
  -28.3914    0.0801   31.0065 C   0  0  0  0  0  0  0  0  0  0  0  0
  -27.4940    1.1521   30.7841 C   0  0  0  0  0  0  0  0  0  0  0  0
  -26.3109    0.3917   27.3640 C   0  0  0  0  0  0  0  0  0  0  0  0
  -25.5529   -0.4068   27.2286 F   0  0  0  0  0  0  0  0  0  0  0  0
  -25.6173    1.6102   27.2977 F   0  0  0  0  0  0  0  0  0  0  0  0
  -27.1940    0.4863   26.2871 F   0  0  0  0  0  0  0  0  0  0  0  0
  -29.5138   -2.2725   30.1248 Cl  0  0  0  0  0  0  0  0  0  0  0  0
  -27.3076    2.1839   31.8596 C   0  0  0  0  0  0  0  0  0  0  0  0
  -27.3103    3.4256   31.5967 C   0  0  0  0  0  0  0  0  0  0  0  0
  -27.5441    3.9658   30.3250 C   0  0  0  0  0  0  0  0  0  0  0  0
  -27.4033    5.3729   30.0931 C   0  0  0  0  0  0  0  0  0  0  0  0
  -27.4891    5.8655   28.7642 C   0  0  0  0  0  0  0  0  0  0  0  0
  -27.5681    4.9562   27.6877 C   0  0  0  0  0  0  0  0  0  0  0  0
  -27.6812    3.6230   27.9656 C   0  0  0  0  0  0  0  0  0  0  0  0
  -27.5856    3.1542   29.2604 C   0  0  0  0  0  0  0  0  0  0  0  0
  -28.7189    2.4355   29.2476 O   0  0  0  0  0  0  0  0  0  0  0  0
  -29.6573    2.6400   28.1897 C   0  0  0  0  0  0  0  0  0  0  0  0
  3  7  1  0
  7  8  1  0
  7  9  1  0
  7 10  1  0
  2 11  1  0
  6 12  1  0
 12 13  2  3
 13 14  1  0
 19 20  1  0
 20 21  1  0
 14 15  2  0
 15 16  1  0
 16 17  2  0
 17 18  1  0
 18 19  2  0
 19 14  1  0
  1  2  2  0
  2  5  1  0
  5  6  2  0
  6  4  1  0
  4  3  2  0
  3  1  1  0
M  END

$$$$
