No_3471-gen_results/8p0m/2024-11-27-11-27-31/
     RDKit          3D

 22 24  0  0  0  0  0  0  0  0999 V2000
  -28.0162   -0.8135   28.8779 C   0  0  0  0  0  0  0  0  0  0  0  0
  -28.4690   -0.7850   29.8287 C   0  0  0  0  0  0  0  0  0  0  0  0
  -26.5042   -0.7777   28.8766 C   0  0  0  0  0  0  0  0  0  0  0  0
  -25.8103   -0.8531   30.1028 C   0  0  0  0  0  0  0  0  0  0  0  0
  -27.9906   -0.8916   31.2257 C   0  0  0  0  0  0  0  0  0  0  0  0
  -26.6042   -0.8676   31.2652 C   0  0  0  0  0  0  0  0  0  0  0  0
  -24.4436   -0.6734   29.9745 C   0  0  0  0  0  0  0  0  0  0  0  0
  -23.6862   -1.4455   30.5677 C   0  0  0  0  0  0  0  0  0  0  0  0
  -23.8402    0.4116   29.2892 C   0  0  0  0  0  0  0  0  0  0  0  0
  -22.4489    0.5198   29.1495 C   0  0  0  0  0  0  0  0  0  0  0  0
  -22.1971   -1.3576   30.6182 C   0  0  0  0  0  0  0  0  0  0  0  0
  -21.8036    1.5660   28.4001 C   0  0  0  0  0  0  0  0  0  0  0  0
  -21.6430   -0.4261   29.8598 C   0  0  0  0  0  0  0  0  0  0  0  0
  -22.5555    2.3336   27.6005 O   0  0  0  0  0  0  0  0  0  0  0  0
  -20.4409    1.5209   28.1115 O   0  0  0  0  0  0  0  0  0  0  0  0
  -30.0995   -0.8425   29.8627 C   0  0  0  0  0  0  0  0  0  0  0  0
  -30.7589   -1.7414   30.3124 N   0  0  0  0  0  0  0  0  0  0  0  0
  -30.2889   -2.7116   30.9498 C   0  0  0  0  0  0  0  0  0  0  0  0
  -30.5311    0.1811   29.2221 O   0  0  0  0  0  0  0  0  0  0  0  0
  -31.2568   -3.8343   31.1737 C   0  0  0  0  0  0  0  0  0  0  0  0
  -32.2316   -3.7787   30.5490 C   0  0  0  0  0  0  0  0  0  0  0  0
  -32.0414   -2.2655   29.8738 C   0  0  0  0  0  0  0  0  0  0  0  0
  4  7  1  0
 10 12  1  0
 12 14  2  0
 12 15  1  0
  2 16  1  0
 16 17  1  0
 17 18  1  0
 16 19  2  0
 18 20  2  0
 20 21  1  0
 17 22  1  0
 21 22  2  0
  7  8  2  0
  8 11  1  0
 11 13  2  0
 13 10  1  0
 10  9  2  0
  9  7  1  0
  1  2  2  0
  2  5  1  0
  5  6  2  0
  6  4  1  0
  4  3  2  0
  3  1  1  0
M  END

$$$$
