No_3125-gen_results/8p0m/2024-11-27-11-27-31/
     RDKit          3D

 24 26  0  0  0  0  0  0  0  0999 V2000
  -28.0162   -0.8135   28.8779 C   0  0  0  0  0  0  0  0  0  0  0  0
  -28.4690   -0.7850   29.8287 C   0  0  0  0  0  0  0  0  0  0  0  0
  -27.0871    0.2903   28.6377 C   0  0  0  0  0  0  0  0  0  0  0  0
  -26.2516    0.4114   27.4223 C   0  0  0  0  0  0  0  0  0  0  0  0
  -28.3913    0.1041   30.9805 C   0  0  0  0  0  0  0  0  0  0  0  0
  -27.5332    1.1666   30.7866 C   0  0  0  0  0  0  0  0  0  0  0  0
  -26.8281    1.2557   29.6454 C   0  0  0  0  0  0  0  0  0  0  0  0
  -25.1384    0.6748   27.2307 C   0  0  0  0  0  0  0  0  0  0  0  0
  -24.3157    0.8669   28.4419 C   0  0  0  0  0  0  0  0  0  0  0  0
  -23.3532    0.3542   28.6369 C   0  0  0  0  0  0  0  0  0  0  0  0
  -22.3335    0.6861   29.7210 C   0  0  0  0  0  0  0  0  0  0  0  0
  -21.2187    0.0872   29.7690 F   0  0  0  0  0  0  0  0  0  0  0  0
  -25.0103    1.7309   29.5361 C   0  0  0  0  0  0  0  0  0  0  0  0
  -23.0357    0.4824   30.6260 F   0  0  0  0  0  0  0  0  0  0  0  0
  -22.1201    2.0010   29.5984 F   0  0  0  0  0  0  0  0  0  0  0  0
  -29.5760   -1.7661   30.0977 O   0  0  0  0  0  0  0  0  0  0  0  0
  -29.3095   -3.0040   30.5940 C   0  0  0  0  0  0  0  0  0  0  0  0
  -30.3022   -3.9365   30.2627 C   0  0  0  0  0  0  0  0  0  0  0  0
  -31.0000   -3.8645   29.2352 C   0  0  0  0  0  0  0  0  0  0  0  0
  -31.8239   -5.0331   28.8188 C   0  0  0  0  0  0  0  0  0  0  0  0
  -31.8097   -6.1605   29.6229 C   0  0  0  0  0  0  0  0  0  0  0  0
  -31.0443   -6.2727   30.7478 C   0  0  0  0  0  0  0  0  0  0  0  0
  -30.1634   -5.1776   31.1207 C   0  0  0  0  0  0  0  0  0  0  0  0
  -28.2376   -3.1145   31.3298 O   0  0  0  0  0  0  0  0  0  0  0  0
 10 11  1  0
 11 12  1  0
 11 14  1  0
 11 15  1  0
  2 16  1  0
 16 17  1  0
 17 18  1  0
 17 24  2  0
 10  9  1  0
 18 19  2  0
 19 20  1  0
 20 21  2  0
 21 22  1  0
 22 23  2  0
 23 18  1  0
  3  4  2  0
  4  8  1  0
  8  9  2  0
  9 13  1  0
 13  7  2  0
  1  2  2  0
  2  5  1  0
  5  6  2  0
  6  7  1  0
  7  3  1  0
  3  1  1  0
M  END

$$$$
