No_3948-gen_results/8p0m/2024-11-27-11-27-31/
     RDKit          3D

 24 25  0  0  0  0  0  0  0  0999 V2000
  -28.0162   -0.8135   28.8779 C   0  0  0  0  0  0  0  0  0  0  0  0
  -28.4690   -0.7850   29.8287 C   0  0  0  0  0  0  0  0  0  0  0  0
  -26.5042   -0.7777   28.8766 C   0  0  0  0  0  0  0  0  0  0  0  0
  -25.8103   -0.8531   30.1028 C   0  0  0  0  0  0  0  0  0  0  0  0
  -27.9906   -0.8916   31.2257 C   0  0  0  0  0  0  0  0  0  0  0  0
  -26.6042   -0.8676   31.2652 C   0  0  0  0  0  0  0  0  0  0  0  0
  -30.2937   -0.8377   29.8355 Cl  0  0  0  0  0  0  0  0  0  0  0  0
  -24.3700   -0.8208   30.1393 C   0  0  0  0  0  0  0  0  0  0  0  0
  -23.7914    0.5375   30.1250 C   0  0  0  0  0  0  0  0  0  0  0  0
  -23.3720    1.0968   28.9107 C   0  0  0  0  0  0  0  0  0  0  0  0
  -23.9840    2.2136   28.2885 C   0  0  0  0  0  0  0  0  0  0  0  0
  -25.0112    2.8572   28.9044 C   0  0  0  0  0  0  0  0  0  0  0  0
  -25.1783    2.6157   30.3229 C   0  0  0  0  0  0  0  0  0  0  0  0
  -24.5292    1.4531   31.0460 C   0  0  0  0  0  0  0  0  0  0  0  0
  -26.0436    3.4841   31.1489 C   0  0  0  0  0  0  0  0  0  0  0  0
  -26.0681    3.4227   32.2625 O   0  0  0  0  0  0  0  0  0  0  0  0
  -26.4927    4.4368   30.5104 F   0  0  0  0  0  0  0  0  0  0  0  0
  -25.7307   -0.7402   27.6404 C   0  0  0  0  0  0  0  0  0  0  0  0
  -23.5701    2.6306   26.9622 C   0  0  0  0  0  0  0  0  0  0  0  0
  -24.2493    1.9560   26.0889 F   0  0  0  0  0  0  0  0  0  0  0  0
  -23.6694    3.8244   26.4688 F   0  0  0  0  0  0  0  0  0  0  0  0
  -22.2415    2.3579   26.8113 F   0  0  0  0  0  0  0  0  0  0  0  0
  -22.4183    0.3524   31.0073 C   0  0  0  0  0  0  0  0  0  0  0  0
  -23.7254   -2.0211   30.0860 C   0  0  0  0  0  0  0  0  0  0  0  0
  2  7  1  0
  4  8  1  0
  8  9  1  0
  9 10  1  0
 11 12  1  0
  9 14  1  0
 13 14  1  0
 13 15  1  0
 15 16  2  0
 15 17  1  0
  3 18  1  0
 11 19  1  0
 19 20  1  0
 19 21  1  0
 19 22  1  0
  9 23  1  0
  8 24  1  0
 10 11  1  0
 12 13  1  0
  1  2  2  0
  2  5  1  0
  5  6  2  0
  6  4  1  0
  4  3  2  0
  3  1  1  0
M  END

$$$$
