No_3903-gen_results/8p0m/2024-11-27-11-27-31/
     RDKit          3D

 29 32  0  0  0  0  0  0  0  0999 V2000
  -28.0162   -0.8135   28.8779 C   0  0  0  0  0  0  0  0  0  0  0  0
  -27.0636   -0.1190   28.6079 C   0  0  0  0  0  0  0  0  0  0  0  0
  -26.9716    0.7139   27.5060 C   0  0  0  0  0  0  0  0  0  0  0  0
  -28.1053    0.7744   26.6421 C   0  0  0  0  0  0  0  0  0  0  0  0
  -29.2041    0.1179   27.0477 C   0  0  0  0  0  0  0  0  0  0  0  0
  -29.2127   -0.6088   28.1281 C   0  0  0  0  0  0  0  0  0  0  0  0
  -25.7106    1.4518   27.1380 C   0  0  0  0  0  0  0  0  0  0  0  0
  -25.3772    2.0455   26.1738 C   0  0  0  0  0  0  0  0  0  0  0  0
  -24.0750    2.7193   25.9782 C   0  0  0  0  0  0  0  0  0  0  0  0
  -23.0770    2.4988   26.9483 C   0  0  0  0  0  0  0  0  0  0  0  0
  -23.3638    1.6220   28.0103 C   0  0  0  0  0  0  0  0  0  0  0  0
  -24.6236    1.0878   28.1747 C   0  0  0  0  0  0  0  0  0  0  0  0
  -30.4028    0.2680   26.1859 C   0  0  0  0  0  0  0  0  0  0  0  0
  -30.3377    0.2807   25.1140 O   0  0  0  0  0  0  0  0  0  0  0  0
  -31.5545   -0.1425   26.7808 O   0  0  0  0  0  0  0  0  0  0  0  0
  -22.3453    1.4381   28.8854 O   0  0  0  0  0  0  0  0  0  0  0  0
  -22.5714    0.4645   29.8246 C   0  0  0  0  0  0  0  0  0  0  0  0
  -28.0716   -1.6167   30.0262 N   0  0  0  0  0  0  0  0  0  0  0  0
  -28.8725   -1.7029   30.9282 C   0  0  0  0  0  0  0  0  0  0  0  0
  -27.2345   -2.8333   29.8040 C   0  0  0  0  0  0  0  0  0  0  0  0
  -27.7663   -4.0918   30.1423 C   0  0  0  0  0  0  0  0  0  0  0  0
  -29.3976   -2.9467   31.4388 C   0  0  0  0  0  0  0  0  0  0  0  0
  -28.6922   -4.1346   31.2508 C   0  0  0  0  0  0  0  0  0  0  0  0
  -23.7095    0.5021   30.5540 C   0  0  0  0  0  0  0  0  0  0  0  0
  -24.0464   -0.3898   31.6627 C   0  0  0  0  0  0  0  0  0  0  0  0
  -25.3167   -0.3067   32.2641 C   0  0  0  0  0  0  0  0  0  0  0  0
  -25.8552    0.6217   32.5030 C   0  0  0  0  0  0  0  0  0  0  0  0
  -25.5273    1.8843   31.6810 C   0  0  0  0  0  0  0  0  0  0  0  0
  -24.4850    1.8069   30.8040 C   0  0  0  0  0  0  0  0  0  0  0  0
  3  7  1  0
  5 13  1  0
 13 14  2  0
 13 15  1  0
 11 16  1  0
 16 17  1  0
  1 18  1  0
 18 19  1  0
 18 20  1  0
 20 21  1  0
 22 23  1  0
 17 24  1  0
 19 22  1  0
 23 21  1  0
  1  2  2  0
  2  3  1  0
  3  4  2  0
  4  5  1  0
  5  6  2  0
  6  1  1  0
 24 25  2  0
 25 26  1  0
 26 27  2  0
 27 28  1  0
 28 29  2  0
 29 24  1  0
  7  8  2  0
  8  9  1  0
  9 10  2  0
 10 11  1  0
 11 12  2  0
 12  7  1  0
M  END

$$$$
