No_3198-gen_results/8p0m/2024-11-27-11-27-31/
     RDKit          3D

 33 37  0  0  0  0  0  0  0  0999 V2000
  -28.0162   -0.8135   28.8779 C   0  0  0  0  0  0  0  0  0  0  0  0
  -27.0636   -0.1189   28.6079 C   0  0  0  0  0  0  0  0  0  0  0  0
  -26.8756    1.1325   28.9134 C   0  0  0  0  0  0  0  0  0  0  0  0
  -25.6883    1.9515   28.5672 C   0  0  0  0  0  0  0  0  0  0  0  0
  -24.6394    1.2834   27.8753 C   0  0  0  0  0  0  0  0  0  0  0  0
  -23.4556    1.9996   27.5653 C   0  0  0  0  0  0  0  0  0  0  0  0
  -25.8432   -0.7373   27.9210 C   0  0  0  0  0  0  0  0  0  0  0  0
  -24.6903   -0.0521   27.5832 C   0  0  0  0  0  0  0  0  0  0  0  0
  -22.2344    2.1314   27.9608 N   0  0  0  0  0  0  0  0  0  0  0  0
  -23.6882    2.9514   26.5901 O   0  0  0  0  0  0  0  0  0  0  0  0
  -27.9191   -1.2669   30.3675 C   0  0  0  0  0  0  0  0  0  0  0  0
  -28.9588   -2.1874   30.8631 C   0  0  0  0  0  0  0  0  0  0  0  0
  -30.2067   -1.7095   30.6102 C   0  0  0  0  0  0  0  0  0  0  0  0
  -30.4064   -0.6812   30.5840 C   0  0  0  0  0  0  0  0  0  0  0  0
  -31.8058   -0.2695   30.4333 C   0  0  0  0  0  0  0  0  0  0  0  0
  -32.2157    1.1329   30.3462 C   0  0  0  0  0  0  0  0  0  0  0  0
  -31.1953    2.0625   30.2830 C   0  0  0  0  0  0  0  0  0  0  0  0
  -29.8750    1.7201   30.3876 C   0  0  0  0  0  0  0  0  0  0  0  0
  -29.4927    0.4070   30.5011 C   0  0  0  0  0  0  0  0  0  0  0  0
  -28.1684   -0.1697   31.3069 N   0  0  0  0  0  0  0  0  0  0  0  0
  -27.5151    0.3963   32.2554 C   0  0  0  0  0  0  0  0  0  0  0  0
  -26.5075   -1.7046   30.9014 C   0  0  0  0  0  0  0  0  0  0  0  0
  -27.9709    1.6629   32.7555 C   0  0  0  0  0  0  0  0  0  0  0  0
  -27.3238    2.2371   33.7918 C   0  0  0  0  0  0  0  0  0  0  0  0
  -27.5277   -0.5312   33.4632 C   0  0  0  0  0  0  0  0  0  0  0  0
  -26.6628   -0.0110   34.5571 C   0  0  0  0  0  0  0  0  0  0  0  0
  -27.1979    1.3391   34.9607 N   0  0  0  0  0  0  0  0  0  0  0  0
  -25.9928   -2.8774   30.1109 C   0  0  0  0  0  0  0  0  0  0  0  0
  -26.5414    1.9367   36.1288 C   0  0  0  0  0  0  0  0  0  0  0  0
  -24.6453   -2.7890   29.7076 C   0  0  0  0  0  0  0  0  0  0  0  0
  -23.7861   -1.7444   30.1031 C   0  0  0  0  0  0  0  0  0  0  0  0
  -23.9746   -0.8341   31.1796 C   0  0  0  0  0  0  0  0  0  0  0  0
  -25.4985   -0.5101   30.8975 C   0  0  0  0  0  0  0  0  0  0  0  0
  5  6  1  0
  6  9  1  0
  6 10  2  0
  1 11  1  0
 11 12  1  0
 12 13  1  0
 11 20  1  0
 19 20  1  0
 20 21  1  0
 11 22  1  0
 23 24  1  0
 21 25  1  0
 25 26  1  0
 24 27  1  0
 26 27  1  0
 27 29  1  0
  1  2  1  0
 13 14  1  0
 23 21  1  0
  2  3  2  0
  3  4  1  0
  4  5  2  0
  5  8  1  0
  8  7  2  0
  7  2  1  0
 14 15  2  0
 15 16  1  0
 16 17  2  0
 17 18  1  0
 18 19  2  0
 19 14  1  0
 22 28  2  0
 28 30  1  0
 30 31  2  0
 31 32  1  0
 32 33  2  0
 33 22  1  0
M  END

$$$$
