No_365-gen_results/8p0m/2024-11-27-11-27-31/
     RDKit          3D

 19 20  0  0  0  0  0  0  0  0999 V2000
  -28.0162   -0.8135   28.8779 C   0  0  0  0  0  0  0  0  0  0  0  0
  -28.4690   -0.7850   29.8287 C   0  0  0  0  0  0  0  0  0  0  0  0
  -27.1356    0.2359   28.5352 C   0  0  0  0  0  0  0  0  0  0  0  0
  -26.8745    1.2825   29.3982 C   0  0  0  0  0  0  0  0  0  0  0  0
  -28.3613    0.1987   30.9244 C   0  0  0  0  0  0  0  0  0  0  0  0
  -27.5277    1.2234   30.6356 C   0  0  0  0  0  0  0  0  0  0  0  0
  -26.3987    0.2949   27.2279 C   0  0  0  0  0  0  0  0  0  0  0  0
  -26.9022    0.7280   26.2134 C   0  0  0  0  0  0  0  0  0  0  0  0
  -28.2290    1.2592   26.1972 C   0  0  0  0  0  0  0  0  0  0  0  0
  -28.7982    1.5774   24.8830 C   0  0  0  0  0  0  0  0  0  0  0  0
  -30.0676    2.1462   24.8273 C   0  0  0  0  0  0  0  0  0  0  0  0
  -30.7301    2.5250   26.0010 C   0  0  0  0  0  0  0  0  0  0  0  0
  -30.1271    2.2728   27.2252 C   0  0  0  0  0  0  0  0  0  0  0  0
  -28.9224    1.7239   27.3252 C   0  0  0  0  0  0  0  0  0  0  0  0
  -25.0888   -0.3266   27.3713 C   0  0  0  0  0  0  0  0  0  0  0  0
  -24.7805   -1.2081   28.2094 N   0  0  0  0  0  0  0  0  0  0  0  0
  -23.7153   -1.2797   29.0429 C   0  0  0  0  0  0  0  0  0  0  0  0
  -23.7770   -2.0769   30.1547 C   0  0  0  0  0  0  0  0  0  0  0  0
  -22.5848   -0.4438   28.8166 C   0  0  0  0  0  0  0  0  0  0  0  0
  3  7  1  0
  7  8  2  3
  8  9  1  0
  7 15  1  0
 15 16  1  0
 16 17  1  0
 17 18  2  0
 17 19  1  0
  9 10  2  0
 10 11  1  0
 11 12  2  0
 12 13  1  0
 13 14  2  0
 14  9  1  0
  1  2  2  0
  2  5  1  0
  5  6  2  0
  6  4  1  0
  4  3  2  0
  3  1  1  0
M  END

$$$$
