No_3113-gen_results/8p0m/2024-11-27-11-27-31/
     RDKit          3D

 20 22  0  0  0  0  0  0  0  0999 V2000
  -28.0162   -0.8135   28.8779 C   0  0  0  0  0  0  0  0  0  0  0  0
  -27.0636   -0.1190   28.6079 C   0  0  0  0  0  0  0  0  0  0  0  0
  -26.9287    1.1713   29.0083 C   0  0  0  0  0  0  0  0  0  0  0  0
  -25.7702    2.0341   28.6884 C   0  0  0  0  0  0  0  0  0  0  0  0
  -24.7141    1.4431   27.9188 C   0  0  0  0  0  0  0  0  0  0  0  0
  -24.8590    0.0783   27.5836 C   0  0  0  0  0  0  0  0  0  0  0  0
  -25.9647   -0.6606   27.9164 C   0  0  0  0  0  0  0  0  0  0  0  0
  -29.1778   -0.3051   28.9638 N   0  0  0  0  0  0  0  0  0  0  0  0
  -30.1765   -0.9070   29.7369 C   0  0  0  0  0  0  0  0  0  0  0  0
  -23.5155    2.1616   27.5794 C   0  0  0  0  0  0  0  0  0  0  0  0
  -22.6061    1.5521   27.2521 F   0  0  0  0  0  0  0  0  0  0  0  0
  -23.8581    3.0327   26.5122 F   0  0  0  0  0  0  0  0  0  0  0  0
  -23.1618    3.0366   28.5861 F   0  0  0  0  0  0  0  0  0  0  0  0
  -31.5141   -0.7065   29.4480 C   0  0  0  0  0  0  0  0  0  0  0  0
  -29.8430   -1.7929   30.8502 C   0  0  0  0  0  0  0  0  0  0  0  0
  -28.6078   -1.9512   31.2316 N   0  0  0  0  0  0  0  0  0  0  0  0
  -27.6088   -1.7391   30.0907 C   0  0  0  0  0  0  0  0  0  0  0  0
  -29.6419    0.5870   27.9952 C   0  0  0  0  0  0  0  0  0  0  0  0
  -30.9562    0.7641   27.7162 C   0  0  0  0  0  0  0  0  0  0  0  0
  -31.8749    0.2313   28.5427 C   0  0  0  0  0  0  0  0  0  0  0  0
  1  2  1  0
  1  8  1  0
  8  9  1  0
  5 10  1  0
 10 11  1  0
 10 12  1  0
 10 13  1  0
  9 15  1  0
 15 16  1  0
  1 17  1  0
 16 17  1  0
  8 18  1  0
 14 20  1  0
 19 20  1  0
  9 14  1  0
 19 18  1  0
  2  3  2  0
  3  4  1  0
  4  5  2  0
  5  6  1  0
  6  7  2  0
  7  2  1  0
M  END

$$$$
