No_3461-gen_results/8p0m/2024-11-27-11-27-31/
     RDKit          3D

 19 20  0  0  0  0  0  0  0  0999 V2000
  -28.0162   -0.8135   28.8779 C   0  0  0  0  0  0  0  0  0  0  0  0
  -27.0636   -0.1189   28.6079 C   0  0  0  0  0  0  0  0  0  0  0  0
  -27.0010    0.6913   27.4910 C   0  0  0  0  0  0  0  0  0  0  0  0
  -28.1373    0.7363   26.6350 C   0  0  0  0  0  0  0  0  0  0  0  0
  -29.2360    0.0765   27.0690 C   0  0  0  0  0  0  0  0  0  0  0  0
  -29.2177   -0.6429   28.1747 C   0  0  0  0  0  0  0  0  0  0  0  0
  -28.0253   -1.7815   30.3212 Cl  0  0  0  0  0  0  0  0  0  0  0  0
  -30.5767    0.1520   25.9346 Cl  0  0  0  0  0  0  0  0  0  0  0  0
  -25.7092   -0.1923   29.4427 C   0  0  0  0  0  0  0  0  0  0  0  0
  -24.6160   -0.3465   28.8490 N   0  0  0  0  0  0  0  0  0  0  0  0
  -23.7268    0.4830   28.6433 C   0  0  0  0  0  0  0  0  0  0  0  0
  -23.6525    1.5708   27.8998 C   0  0  0  0  0  0  0  0  0  0  0  0
  -23.0930    1.7619   26.9132 C   0  0  0  0  0  0  0  0  0  0  0  0
  -23.2896    3.0118   26.0191 C   0  0  0  0  0  0  0  0  0  0  0  0
  -24.3354    3.8720   26.4827 C   0  0  0  0  0  0  0  0  0  0  0  0
  -24.7627    2.6695   28.1198 C   0  0  0  0  0  0  0  0  0  0  0  0
  -24.9003    3.7733   27.5273 C   0  0  0  0  0  0  0  0  0  0  0  0
  -22.4948    0.2203   29.1863 O   0  0  0  0  0  0  0  0  0  0  0  0
  -24.4612   -1.6949   28.2448 C   0  0  0  0  0  0  0  0  0  0  0  0
  1  7  1  0
  5  8  1  0
  2  9  1  0
  9 10  1  0
 10 11  1  0
 11 12  1  0
 11 18  2  0
 10 19  1  0
 12 13  2  0
 13 14  1  0
 14 15  2  0
 15 17  1  0
 17 16  2  0
 16 12  1  0
  1  2  2  0
  2  3  1  0
  3  4  2  0
  4  5  1  0
  5  6  2  0
  6  1  1  0
M  END

$$$$
