No_35-gen_results/8p0m/2024-11-27-11-27-31/
     RDKit          3D

 20 20  0  0  0  0  0  0  0  0999 V2000
  -28.0162   -0.8135   28.8779 C   0  0  0  0  0  0  0  0  0  0  0  0
  -28.4690   -0.7850   29.8287 C   0  0  0  0  0  0  0  0  0  0  0  0
  -27.0871    0.2903   28.6377 C   0  0  0  0  0  0  0  0  0  0  0  0
  -26.2516    0.4114   27.4223 C   0  0  0  0  0  0  0  0  0  0  0  0
  -28.3913    0.1041   30.9805 C   0  0  0  0  0  0  0  0  0  0  0  0
  -27.5332    1.1666   30.7866 C   0  0  0  0  0  0  0  0  0  0  0  0
  -26.8281    1.2557   29.6454 C   0  0  0  0  0  0  0  0  0  0  0  0
  -26.1100    1.6187   27.1366 F   0  0  0  0  0  0  0  0  0  0  0  0
  -25.0623   -0.1789   27.5940 F   0  0  0  0  0  0  0  0  0  0  0  0
  -26.8783   -0.1658   26.3381 F   0  0  0  0  0  0  0  0  0  0  0  0
  -29.4572   -2.0264   30.2151 C   0  0  0  0  0  0  0  0  0  0  0  0
  -30.5068   -1.8930   29.8183 O   0  0  0  0  0  0  0  0  0  0  0  0
  -28.9025   -3.2086   30.5563 O   0  0  0  0  0  0  0  0  0  0  0  0
  -27.3072    2.1771   31.8472 C   0  0  0  0  0  0  0  0  0  0  0  0
  -27.1332    1.8649   33.3530 Cl  0  0  0  0  0  0  0  0  0  0  0  0
  -27.2388    3.5570   31.4576 C   0  0  0  0  0  0  0  0  0  0  0  0
  -27.6205    4.1450   30.7013 C   0  0  0  0  0  0  0  0  0  0  0  0
  -27.6332    5.2666   30.1686 C   0  0  0  0  0  0  0  0  0  0  0  0
  -26.7028    6.1898   30.8700 C   0  0  0  0  0  0  0  0  0  0  0  0
  -25.9496    5.6803   31.9120 C   0  0  0  0  0  0  0  0  0  0  0  0
  3  4  1  0
  4  8  1  0
  4  9  1  0
  4 10  1  0
  2 11  1  0
 11 12  2  0
 11 13  1  0
  6 14  1  0
 14 15  1  0
 14 16  1  0
 16 17  2  3
 17 18  1  0
 18 19  2  3
 19 20  1  0
  1  2  2  0
  2  5  1  0
  5  6  2  0
  6  7  1  0
  7  3  2  0
  3  1  1  0
M  END

$$$$
