No_3559-gen_results/8p0m/2024-11-27-11-27-31/
     RDKit          3D

 25 26  0  0  0  0  0  0  0  0999 V2000
  -28.1229   -1.3353   28.4874 O   0  0  0  0  0  0  0  0  0  0  0  0
  -27.0637   -0.8242   28.8687 C   0  0  0  0  0  0  0  0  0  0  0  0
  -26.4017   -0.0623   28.6224 C   0  0  0  0  0  0  0  0  0  0  0  0
  -26.5721   -1.5844   30.1172 N   0  0  0  0  0  0  0  0  0  0  0  0
  -25.0209    0.3562   29.0444 C   0  0  0  0  0  0  0  0  0  0  0  0
  -24.1318    1.3392   28.5895 C   0  0  0  0  0  0  0  0  0  0  0  0
  -24.6037    2.0651   27.4388 C   0  0  0  0  0  0  0  0  0  0  0  0
  -25.8208    1.7769   26.9071 C   0  0  0  0  0  0  0  0  0  0  0  0
  -26.6081    0.8299   27.3612 C   0  0  0  0  0  0  0  0  0  0  0  0
  -27.3639   -2.7278   30.6674 C   0  0  0  0  0  0  0  0  0  0  0  0
  -23.6698    3.1138   26.9377 C   0  0  0  0  0  0  0  0  0  0  0  0
  -27.3017   -3.8876   29.8042 C   0  0  0  0  0  0  0  0  0  0  0  0
  -28.1752   -4.8506   30.1223 O   0  0  0  0  0  0  0  0  0  0  0  0
  -29.4301   -4.3306   30.5142 C   0  0  0  0  0  0  0  0  0  0  0  0
  -30.4237   -5.3520   30.3267 C   0  0  0  0  0  0  0  0  0  0  0  0
  -31.5431   -5.0205   30.6150 C   0  0  0  0  0  0  0  0  0  0  0  0
  -32.6790   -5.6677   30.3464 C   0  0  0  0  0  0  0  0  0  0  0  0
  -32.5253   -6.9516   29.6363 C   0  0  0  0  0  0  0  0  0  0  0  0
  -31.2579   -7.3404   29.2124 C   0  0  0  0  0  0  0  0  0  0  0  0
  -30.1781   -6.5027   29.5327 C   0  0  0  0  0  0  0  0  0  0  0  0
  -29.3386   -4.0139   32.0510 C   0  0  0  0  0  0  0  0  0  0  0  0
  -30.5825   -3.7203   32.6363 C   0  0  0  0  0  0  0  0  0  0  0  0
  -31.4936   -3.7027   32.0922 C   0  0  0  0  0  0  0  0  0  0  0  0
  -31.7804   -3.7116   30.0126 O   0  0  0  0  0  0  0  0  0  0  0  0
  -32.8625   -3.2064   32.2469 C   0  0  0  0  0  0  0  0  0  0  0  0
  1  2  2  0
  2  3  1  0
  2  4  1  0
  4 10  1  0
  7 11  1  0
 10 12  1  0
 12 13  1  0
 13 14  1  0
 14 15  1  0
 14 21  1  0
 21 22  1  0
 22 23  2  3
 16 24  1  0
 23 25  1  0
 15 16  2  0
 16 17  1  0
 17 18  2  0
 18 19  1  0
 19 20  2  0
 20 15  1  0
  3  5  2  0
  5  6  1  0
  6  7  2  0
  7  8  1  0
  8  9  2  0
  9  3  1  0
M  END

$$$$
