No_3799-gen_results/8p0m/2024-11-27-11-27-31/
     RDKit          3D

 20 21  0  0  0  0  0  0  0  0999 V2000
  -28.0162   -0.8135   28.8779 C   0  0  0  0  0  0  0  0  0  0  0  0
  -27.0636   -0.1190   28.6079 C   0  0  0  0  0  0  0  0  0  0  0  0
  -26.9716    0.7139   27.5060 C   0  0  0  0  0  0  0  0  0  0  0  0
  -25.8205    1.4909   27.1160 C   0  0  0  0  0  0  0  0  0  0  0  0
  -24.6562    1.4242   27.9180 C   0  0  0  0  0  0  0  0  0  0  0  0
  -24.6847    0.5901   29.0659 C   0  0  0  0  0  0  0  0  0  0  0  0
  -25.8099   -0.1266   29.3338 C   0  0  0  0  0  0  0  0  0  0  0  0
  -28.7093   -0.4588   30.1754 C   0  0  0  0  0  0  0  0  0  0  0  0
  -29.6183   -1.3904   30.7163 C   0  0  0  0  0  0  0  0  0  0  0  0
  -23.4679    2.2040   27.5990 C   0  0  0  0  0  0  0  0  0  0  0  0
  -22.5568    2.2154   28.4735 O   0  0  0  0  0  0  0  0  0  0  0  0
  -23.2791    2.6069   26.3831 O   0  0  0  0  0  0  0  0  0  0  0  0
  -28.4741    0.7195   30.8524 C   0  0  0  0  0  0  0  0  0  0  0  0
  -29.1098    1.0119   31.9836 C   0  0  0  0  0  0  0  0  0  0  0  0
  -30.3138   -1.0711   31.9452 C   0  0  0  0  0  0  0  0  0  0  0  0
  -30.0281    0.1412   32.5846 C   0  0  0  0  0  0  0  0  0  0  0  0
  -28.4256    0.8599   26.3652 Br  0  0  0  0  0  0  0  0  0  0  0  0
  -30.6831    0.4098   33.7299 O   0  0  0  0  0  0  0  0  0  0  0  0
  -25.7339   -0.8412   30.4845 O   0  0  0  0  0  0  0  0  0  0  0  0
  -30.2514    1.4253   34.4449 C   0  0  0  0  0  0  0  0  0  0  0  0
  1  2  2  3
  2  3  1  0
  3  4  1  0
  4  5  1  0
  5  6  1  0
  2  7  1  0
  6  7  1  0
  1  8  1  0
  5 10  1  0
 10 11  2  0
 10 12  1  0
  3 17  1  0
 16 18  1  0
  7 19  2  0
 18 20  1  0
  8  9  2  0
  9 15  1  0
 15 16  2  0
 16 14  1  0
 14 13  2  0
 13  8  1  0
M  END

$$$$
