No_3381-gen_results/8p0m/2024-11-27-11-27-31/
     RDKit          3D

 23 25  0  0  0  0  0  0  0  0999 V2000
  -28.0162   -0.8135   28.8779 C   0  0  0  0  0  0  0  0  0  0  0  0
  -27.0636   -0.1189   28.6079 C   0  0  0  0  0  0  0  0  0  0  0  0
  -26.9287    1.1713   29.0083 C   0  0  0  0  0  0  0  0  0  0  0  0
  -25.7702    2.0341   28.6884 C   0  0  0  0  0  0  0  0  0  0  0  0
  -24.7141    1.4431   27.9188 C   0  0  0  0  0  0  0  0  0  0  0  0
  -24.8590    0.0783   27.5836 C   0  0  0  0  0  0  0  0  0  0  0  0
  -25.9647   -0.6606   27.9164 C   0  0  0  0  0  0  0  0  0  0  0  0
  -28.6995   -0.6441   30.0766 N   0  0  0  0  0  0  0  0  0  0  0  0
  -29.8035   -1.3645   30.5061 C   0  0  0  0  0  0  0  0  0  0  0  0
  -30.3751   -2.1790   29.7448 C   0  0  0  0  0  0  0  0  0  0  0  0
  -30.4244   -3.4049   30.1593 N   0  0  0  0  0  0  0  0  0  0  0  0
  -23.5434    2.1749   27.5618 C   0  0  0  0  0  0  0  0  0  0  0  0
  -22.4261    2.1779   27.9366 N   0  0  0  0  0  0  0  0  0  0  0  0
  -23.7878    2.9425   26.2590 C   0  0  0  0  0  0  0  0  0  0  0  0
  -31.1294   -3.8759   30.8810 C   0  0  0  0  0  0  0  0  0  0  0  0
  -31.1348   -5.3019   31.2026 C   0  0  0  0  0  0  0  0  0  0  0  0
  -29.2433   -4.2602   30.2353 C   0  0  0  0  0  0  0  0  0  0  0  0
  -29.7676   -5.5884   30.8102 C   0  0  0  0  0  0  0  0  0  0  0  0
  -30.7384   -0.6310   30.9954 F   0  0  0  0  0  0  0  0  0  0  0  0
  -21.2809    2.0338   27.1901 C   0  0  0  0  0  0  0  0  0  0  0  0
  -21.4142    2.4719   25.9901 N   0  0  0  0  0  0  0  0  0  0  0  0
  -22.6374    2.8036   25.4353 C   0  0  0  0  0  0  0  0  0  0  0  0
  -31.0592   -1.9150   28.6797 O   0  0  0  0  0  0  0  0  0  0  0  0
  1  2  1  0
  1  8  1  0
  8  9  1  0
  9 10  1  0
 10 11  1  0
  5 12  1  0
 11 15  1  0
 15 16  2  0
 11 17  1  0
 16 18  1  0
 17 18  1  0
  9 19  1  0
 10 23  2  0
 12 13  2  0
 13 20  1  0
 20 21  2  0
 21 22  1  0
 22 14  2  0
 14 12  1  0
  2  3  2  0
  3  4  1  0
  4  5  2  0
  5  6  1  0
  6  7  2  0
  7  2  1  0
M  END

$$$$
