No_3511-gen_results/8p0m/2024-11-27-11-27-31/
     RDKit          3D

 35 38  0  0  0  0  0  0  0  0999 V2000
  -28.0162   -0.8135   28.8779 C   0  0  0  0  0  0  0  0  0  0  0  0
  -27.0636   -0.1189   28.6079 C   0  0  0  0  0  0  0  0  0  0  0  0
  -26.9716    0.7139   27.5060 C   0  0  0  0  0  0  0  0  0  0  0  0
  -28.1053    0.7744   26.6421 C   0  0  0  0  0  0  0  0  0  0  0  0
  -29.2008    0.1044   27.0527 C   0  0  0  0  0  0  0  0  0  0  0  0
  -28.0219   -1.5899   30.0879 C   0  0  0  0  0  0  0  0  0  0  0  0
  -29.1640   -0.6394   28.1484 C   0  0  0  0  0  0  0  0  0  0  0  0
  -27.1149   -2.3777   30.3500 O   0  0  0  0  0  0  0  0  0  0  0  0
  -28.8356   -1.3561   31.0564 O   0  0  0  0  0  0  0  0  0  0  0  0
  -30.2819    0.2758   25.9958 C   0  0  0  0  0  0  0  0  0  0  0  0
  -31.3643   -0.3344   26.2616 N   0  0  0  0  0  0  0  0  0  0  0  0
  -30.1969    0.9153   24.9701 O   0  0  0  0  0  0  0  0  0  0  0  0
  -32.5064   -0.3702   25.3220 C   0  0  0  0  0  0  0  0  0  0  0  0
  -25.6769    1.4209   27.1291 C   0  0  0  0  0  0  0  0  0  0  0  0
  -24.5783    0.9374   27.4716 N   0  0  0  0  0  0  0  0  0  0  0  0
  -24.0302    0.0093   27.7956 C   0  0  0  0  0  0  0  0  0  0  0  0
  -22.7473   -0.0724   28.4266 C   0  0  0  0  0  0  0  0  0  0  0  0
  -22.2503    1.2460   28.0802 C   0  0  0  0  0  0  0  0  0  0  0  0
  -23.4746    2.0120   27.6407 C   0  0  0  0  0  0  0  0  0  0  0  0
  -25.8687    2.4061   26.3356 O   0  0  0  0  0  0  0  0  0  0  0  0
  -27.3870   -3.7639   30.2247 C   0  0  0  0  0  0  0  0  0  0  0  0
  -27.8343   -4.2370   28.9506 C   0  0  0  0  0  0  0  0  0  0  0  0
  -29.0819   -5.1216   29.3089 C   0  0  0  0  0  0  0  0  0  0  0  0
  -30.2211   -4.9478   28.4844 C   0  0  0  0  0  0  0  0  0  0  0  0
  -31.2959   -5.8972   28.6892 C   0  0  0  0  0  0  0  0  0  0  0  0
  -31.2737   -6.7016   29.7826 C   0  0  0  0  0  0  0  0  0  0  0  0
  -30.2411   -6.7162   30.6903 C   0  0  0  0  0  0  0  0  0  0  0  0
  -29.1444   -5.8775   30.5007 C   0  0  0  0  0  0  0  0  0  0  0  0
  -32.3878   -5.8574   27.7217 C   0  0  0  0  0  0  0  0  0  0  0  0
  -33.1619   -4.7896   27.5136 C   0  0  0  0  0  0  0  0  0  0  0  0
  -33.3111   -3.9114   28.3607 C   0  0  0  0  0  0  0  0  0  0  0  0
  -34.1455   -2.6765   28.1423 C   0  0  0  0  0  0  0  0  0  0  0  0
  -34.7568   -2.5993   26.9308 C   0  0  0  0  0  0  0  0  0  0  0  0
  -34.5830   -3.5688   25.9555 C   0  0  0  0  0  0  0  0  0  0  0  0
  -33.7577   -4.6757   26.2269 C   0  0  0  0  0  0  0  0  0  0  0  0
  1  6  1  0
  6  8  1  0
  6  9  2  0
  5 10  1  0
 10 11  1  0
 10 12  2  0
 11 13  1  0
  3 14  1  0
 14 15  1  0
 15 16  1  0
 16 17  2  0
 17 18  1  0
 15 19  1  0
 18 19  2  0
 14 20  2  0
  8 21  1  0
 21 22  1  0
 22 23  1  0
 25 29  1  0
 29 30  1  0
 23 24  2  0
 24 25  1  0
 25 26  2  0
 26 27  1  0
 27 28  2  0
 28 23  1  0
  1  2  2  0
  2  3  1  0
  3  4  2  0
  4  5  1  0
  5  7  2  0
  7  1  1  0
 30 31  2  0
 31 32  1  0
 32 33  2  0
 33 34  1  0
 34 35  2  0
 35 30  1  0
M  END

$$$$
