No_3958-gen_results/8p0m/2024-11-27-11-27-31/
     RDKit          3D

 16 17  0  0  0  0  0  0  0  0999 V2000
  -28.0162   -0.8135   28.8779 C   0  0  0  0  0  0  0  0  0  0  0  0
  -27.0636   -0.1189   28.6079 C   0  0  0  0  0  0  0  0  0  0  0  0
  -25.7647   -0.3897   29.0360 C   0  0  0  0  0  0  0  0  0  0  0  0
  -25.5296   -1.5302   29.9014 C   0  0  0  0  0  0  0  0  0  0  0  0
  -26.6888   -2.2893   30.1810 C   0  0  0  0  0  0  0  0  0  0  0  0
  -27.8727   -1.9508   29.7373 C   0  0  0  0  0  0  0  0  0  0  0  0
  -24.3819    0.5593   28.6789 Cl  0  0  0  0  0  0  0  0  0  0  0  0
  -29.0263   -2.8156   30.1581 C   0  0  0  0  0  0  0  0  0  0  0  0
  -28.8777   -4.1041   30.3245 N   0  0  0  0  0  0  0  0  0  0  0  0
  -30.3040   -2.2595   30.3960 C   0  0  0  0  0  0  0  0  0  0  0  0
  -31.3661   -3.1262   30.5931 C   0  0  0  0  0  0  0  0  0  0  0  0
  -29.8516   -4.9699   30.6100 C   0  0  0  0  0  0  0  0  0  0  0  0
  -31.1193   -4.4984   30.7619 C   0  0  0  0  0  0  0  0  0  0  0  0
  -32.2031   -5.4511   31.0880 C   0  0  0  0  0  0  0  0  0  0  0  0
  -32.0972   -6.5879   30.9788 C   0  0  0  0  0  0  0  0  0  0  0  0
  -30.6809   -7.2223   30.8546 C   0  0  0  0  0  0  0  0  0  0  0  0
  3  7  1  0
  6  8  1  0
 13 14  1  0
 14 15  2  3
 15 16  1  0
  1  2  2  0
  2  3  1  0
  3  4  2  0
  4  5  1  0
  5  6  2  0
  6  1  1  0
  8  9  2  0
  9 12  1  0
 12 13  2  0
 13 11  1  0
 11 10  2  0
 10  8  1  0
M  END

$$$$
