No_3043-gen_results/8p0m/2024-11-27-11-27-31/
     RDKit          3D

 16 17  0  0  0  0  0  0  0  0999 V2000
  -28.0162   -0.8135   28.8779 C   0  0  0  0  0  0  0  0  0  0  0  0
  -28.4690   -0.7850   29.8287 C   0  0  0  0  0  0  0  0  0  0  0  0
  -28.1960    0.3478   28.0550 C   0  0  0  0  0  0  0  0  0  0  0  0
  -29.0191    1.3501   28.3782 C   0  0  0  0  0  0  0  0  0  0  0  0
  -29.4107    0.1803   30.3782 C   0  0  0  0  0  0  0  0  0  0  0  0
  -29.6059    1.2495   29.6193 C   0  0  0  0  0  0  0  0  0  0  0  0
  -27.4597    0.3802   26.7091 C   0  0  0  0  0  0  0  0  0  0  0  0
  -26.1039    0.2914   26.7009 N   0  0  0  0  0  0  0  0  0  0  0  0
  -25.2777    1.1601   27.3159 C   0  0  0  0  0  0  0  0  0  0  0  0
  -23.9021    0.7964   27.5503 C   0  0  0  0  0  0  0  0  0  0  0  0
  -22.9073    1.7492   27.5346 C   0  0  0  0  0  0  0  0  0  0  0  0
  -25.6190    2.4963   27.5279 C   0  0  0  0  0  0  0  0  0  0  0  0
  -24.6328    3.4939   27.7895 C   0  0  0  0  0  0  0  0  0  0  0  0
  -23.2700    3.1316   27.7611 C   0  0  0  0  0  0  0  0  0  0  0  0
  -28.0542    0.6011   25.6957 O   0  0  0  0  0  0  0  0  0  0  0  0
  -21.6529    1.4328   27.7506 F   0  0  0  0  0  0  0  0  0  0  0  0
  3  7  1  0
  7  8  1  0
  8  9  1  0
  7 15  2  0
 11 16  1  0
  9 10  2  0
 10 11  1  0
 11 14  2  0
 14 13  1  0
 13 12  2  0
 12  9  1  0
  1  2  2  0
  2  5  1  0
  5  6  2  0
  6  4  1  0
  4  3  2  0
  3  1  1  0
M  END

$$$$
