No_3704-gen_results/8p0m/2024-11-27-11-27-31/
     RDKit          3D

 22 24  0  0  0  0  0  0  0  0999 V2000
  -28.0162   -0.8135   28.8779 C   0  0  0  0  0  0  0  0  0  0  0  0
  -27.0636   -0.1190   28.6079 C   0  0  0  0  0  0  0  0  0  0  0  0
  -25.7647   -0.3897   29.0360 C   0  0  0  0  0  0  0  0  0  0  0  0
  -25.5296   -1.5303   29.9014 C   0  0  0  0  0  0  0  0  0  0  0  0
  -26.6888   -2.2893   30.1810 C   0  0  0  0  0  0  0  0  0  0  0  0
  -27.8727   -1.9508   29.7373 C   0  0  0  0  0  0  0  0  0  0  0  0
  -24.5491    0.4100   28.7341 C   0  0  0  0  0  0  0  0  0  0  0  0
  -23.3309    0.0437   29.0569 C   0  0  0  0  0  0  0  0  0  0  0  0
  -22.1994    0.8236   28.7067 C   0  0  0  0  0  0  0  0  0  0  0  0
  -20.9018    0.5172   28.8256 C   0  0  0  0  0  0  0  0  0  0  0  0
  -22.6065    1.9537   27.7869 C   0  0  0  0  0  0  0  0  0  0  0  0
  -23.8054    2.3341   27.4646 C   0  0  0  0  0  0  0  0  0  0  0  0
  -24.7986    1.5381   27.8912 C   0  0  0  0  0  0  0  0  0  0  0  0
  -29.0450   -2.7824   30.1568 C   0  0  0  0  0  0  0  0  0  0  0  0
  -28.9035   -4.0965   30.3726 N   0  0  0  0  0  0  0  0  0  0  0  0
  -30.1987   -2.3145   30.2174 O   0  0  0  0  0  0  0  0  0  0  0  0
  -29.9425   -5.0230   30.6892 C   0  0  0  0  0  0  0  0  0  0  0  0
  -29.7996   -5.6512   31.8898 C   0  0  0  0  0  0  0  0  0  0  0  0
  -30.5244   -6.8761   32.0719 C   0  0  0  0  0  0  0  0  0  0  0  0
  -31.4681   -7.2744   31.1009 C   0  0  0  0  0  0  0  0  0  0  0  0
  -31.5502   -6.5481   29.9051 C   0  0  0  0  0  0  0  0  0  0  0  0
  -30.6694   -5.4658   29.6680 C   0  0  0  0  0  0  0  0  0  0  0  0
  3  7  1  0
  6 14  1  0
 14 15  1  0
 14 16  2  0
 15 17  1  0
 10  9  1  0
  7  8  2  0
  8  9  1  0
  9 11  2  0
 11 12  1  0
 12 13  2  0
 13  7  1  0
  1  2  2  0
  2  3  1  0
  3  4  2  0
  4  5  1  0
  5  6  2  0
  6  1  1  0
 17 18  2  0
 18 19  1  0
 19 20  2  0
 20 21  1  0
 21 22  2  0
 22 17  1  0
M  END

$$$$
