No_3070-gen_results/8p0m/2024-11-27-11-27-31/
     RDKit          3D

 17 18  0  0  0  0  0  0  0  0999 V2000
  -28.0162   -0.8135   28.8779 C   0  0  0  0  0  0  0  0  0  0  0  0
  -28.4690   -0.7850   29.8287 C   0  0  0  0  0  0  0  0  0  0  0  0
  -26.5455   -0.8762   28.8500 C   0  0  0  0  0  0  0  0  0  0  0  0
  -25.8041   -1.0324   30.0571 C   0  0  0  0  0  0  0  0  0  0  0  0
  -27.9437   -0.9869   31.2075 C   0  0  0  0  0  0  0  0  0  0  0  0
  -24.4008   -1.0969   30.0965 C   0  0  0  0  0  0  0  0  0  0  0  0
  -26.5612   -1.0746   31.2270 C   0  0  0  0  0  0  0  0  0  0  0  0
  -23.7342    0.1405   29.9379 C   0  0  0  0  0  0  0  0  0  0  0  0
  -23.9870    1.2852   30.4777 C   0  0  0  0  0  0  0  0  0  0  0  0
  -25.1632    1.4253   31.2810 C   0  0  0  0  0  0  0  0  0  0  0  0
  -25.3955    2.7906   31.8118 C   0  0  0  0  0  0  0  0  0  0  0  0
  -26.4123    3.0694   32.7566 C   0  0  0  0  0  0  0  0  0  0  0  0
  -27.0952    1.9059   33.2109 C   0  0  0  0  0  0  0  0  0  0  0  0
  -26.7109    0.7064   32.9095 C   0  0  0  0  0  0  0  0  0  0  0  0
  -25.6932    0.4624   32.0547 C   0  0  0  0  0  0  0  0  0  0  0  0
  -24.6297   -0.3874   32.9077 C   0  0  0  0  0  0  0  0  0  0  0  0
  -26.1502   -2.3748   31.9524 C   0  0  0  0  0  0  0  0  0  0  0  0
  4  6  1  0
  6  8  1  0
  8  9  2  3
  9 10  1  0
 15 16  1  0
  7 17  1  0
 10 11  2  0
 11 12  1  0
 12 13  2  0
 13 14  1  0
 14 15  2  0
 15 10  1  0
  1  2  2  0
  2  5  1  0
  5  7  2  0
  7  4  1  0
  4  3  2  0
  3  1  1  0
M  END

$$$$
