No_3413-gen_results/8p0m/2024-11-27-11-27-31/
     RDKit          3D

 13 13  0  0  0  0  0  0  0  0999 V2000
  -28.1229   -1.3353   28.4874 O   0  0  0  0  0  0  0  0  0  0  0  0
  -28.5208   -0.4363   29.0779 C   0  0  0  0  0  0  0  0  0  0  0  0
  -28.5894    0.5916   28.9464 C   0  0  0  0  0  0  0  0  0  0  0  0
  -29.0845   -0.9256   30.3785 F   0  0  0  0  0  0  0  0  0  0  0  0
  -28.1354    1.5158   28.7328 C   0  0  0  0  0  0  0  0  0  0  0  0
  -27.4152    2.7050   28.2400 C   0  0  0  0  0  0  0  0  0  0  0  0
  -27.9157    3.8535   27.7968 C   0  0  0  0  0  0  0  0  0  0  0  0
  -27.0491    5.0075   27.4117 C   0  0  0  0  0  0  0  0  0  0  0  0
  -25.6463    4.7924   27.3604 C   0  0  0  0  0  0  0  0  0  0  0  0
  -25.1356    3.5472   27.6836 C   0  0  0  0  0  0  0  0  0  0  0  0
  -25.9335    2.5385   28.1683 C   0  0  0  0  0  0  0  0  0  0  0  0
  -23.7719    3.4199   27.6478 O   0  0  0  0  0  0  0  0  0  0  0  0
  -23.3801    2.3780   26.7983 C   0  0  0  0  0  0  0  0  0  0  0  0
  1  2  2  0
  2  3  1  0
  2  4  1  0
  3  5  3  0
  5  6  1  0
 10 12  1  0
 12 13  1  0
  6  7  2  0
  7  8  1  0
  8  9  2  0
  9 10  1  0
 10 11  2  0
 11  6  1  0
M  END

$$$$
