No_3846-gen_results/8p0m/2024-11-27-11-27-31/
     RDKit          3D

 19 20  0  0  0  0  0  0  0  0999 V2000
  -28.0162   -0.8135   28.8779 C   0  0  0  0  0  0  0  0  0  0  0  0
  -27.0636   -0.1190   28.6079 C   0  0  0  0  0  0  0  0  0  0  0  0
  -26.9716    0.7139   27.5060 C   0  0  0  0  0  0  0  0  0  0  0  0
  -28.1053    0.7744   26.6421 C   0  0  0  0  0  0  0  0  0  0  0  0
  -29.2008    0.1044   27.0527 C   0  0  0  0  0  0  0  0  0  0  0  0
  -28.0219   -1.5899   30.0879 C   0  0  0  0  0  0  0  0  0  0  0  0
  -29.1640   -0.6394   28.1484 C   0  0  0  0  0  0  0  0  0  0  0  0
  -27.0665   -2.4543   30.3037 N   0  0  0  0  0  0  0  0  0  0  0  0
  -29.0149   -1.6588   30.8762 O   0  0  0  0  0  0  0  0  0  0  0  0
  -30.3863    0.2057   26.1774 C   0  0  0  0  0  0  0  0  0  0  0  0
  -31.2733   -0.4044   26.3348 O   0  0  0  0  0  0  0  0  0  0  0  0
  -30.3682    1.0088   25.1250 O   0  0  0  0  0  0  0  0  0  0  0  0
  -25.8428   -2.5190   29.5352 C   0  0  0  0  0  0  0  0  0  0  0  0
  -24.8262   -1.6513   29.8409 C   0  0  0  0  0  0  0  0  0  0  0  0
  -23.6201   -1.7574   29.1390 C   0  0  0  0  0  0  0  0  0  0  0  0
  -22.6200   -0.7721   29.3125 C   0  0  0  0  0  0  0  0  0  0  0  0
  -22.8874    0.4196   30.0193 C   0  0  0  0  0  0  0  0  0  0  0  0
  -24.0201    0.5152   30.8385 C   0  0  0  0  0  0  0  0  0  0  0  0
  -25.0675   -0.4542   30.7111 C   0  0  0  0  0  0  0  0  0  0  0  0
  1  6  1  0
  6  8  1  0
  6  9  2  0
  5 10  1  0
 10 11  1  0
 10 12  2  0
  8 13  1  0
 13 14  1  0
 14 15  2  0
 15 16  1  0
 16 17  2  0
 17 18  1  0
 18 19  2  0
 19 14  1  0
  1  2  2  0
  2  3  1  0
  3  4  2  0
  4  5  1  0
  5  7  2  0
  7  1  1  0
M  END

$$$$
