No_3168-gen_results/8p0m/2024-11-27-11-27-31/
     RDKit          3D

  9  9  0  0  0  0  0  0  0  0999 V2000
  -28.0162   -0.8135   28.8779 C   0  0  0  0  0  0  0  0  0  0  0  0
  -28.4690   -0.7850   29.8287 C   0  0  0  0  0  0  0  0  0  0  0  0
  -26.5042   -0.7777   28.8766 C   0  0  0  0  0  0  0  0  0  0  0  0
  -25.8103   -0.8531   30.1028 C   0  0  0  0  0  0  0  0  0  0  0  0
  -27.9864   -0.8420   31.0657 C   0  0  0  0  0  0  0  0  0  0  0  0
  -26.6147   -0.8427   31.2304 C   0  0  0  0  0  0  0  0  0  0  0  0
  -30.2885   -0.8426   29.7651 Cl  0  0  0  0  0  0  0  0  0  0  0  0
  -23.9649   -0.8192   30.1439 Br  0  0  0  0  0  0  0  0  0  0  0  0
  -25.5392   -0.7459   27.4354 Cl  0  0  0  0  0  0  0  0  0  0  0  0
  2  7  1  0
  4  8  1  0
  3  9  1  0
  1  2  2  0
  2  5  1  0
  5  6  2  0
  6  4  1  0
  4  3  2  0
  3  1  1  0
M  END

$$$$
