No_3213-gen_results/8p0m/2024-11-27-11-27-31/
     RDKit          3D

 19 21  0  0  0  0  0  0  0  0999 V2000
  -28.1229   -1.3353   28.4874 O   0  0  0  0  0  0  0  0  0  0  0  0
  -27.0637   -0.8242   28.8687 C   0  0  0  0  0  0  0  0  0  0  0  0
  -25.9464   -1.0396   28.8492 C   0  0  0  0  0  0  0  0  0  0  0  0
  -24.7602   -0.1562   29.1644 C   0  0  0  0  0  0  0  0  0  0  0  0
  -23.3890   -0.4551   29.0162 C   0  0  0  0  0  0  0  0  0  0  0  0
  -27.1818    0.7101   29.2928 N   0  0  0  0  0  0  0  0  0  0  0  0
  -28.5538    1.1514   29.3466 C   0  0  0  0  0  0  0  0  0  0  0  0
  -22.4313    0.5468   29.0736 C   0  0  0  0  0  0  0  0  0  0  0  0
  -22.8603    1.8411   29.0060 C   0  0  0  0  0  0  0  0  0  0  0  0
  -24.1556    2.2233   28.9949 C   0  0  0  0  0  0  0  0  0  0  0  0
  -25.1154    1.2070   29.0060 C   0  0  0  0  0  0  0  0  0  0  0  0
  -26.2052    1.5346   29.3572 C   0  0  0  0  0  0  0  0  0  0  0  0
  -26.5797    3.1589   29.7216 Cl  0  0  0  0  0  0  0  0  0  0  0  0
  -29.1386    1.5766   28.5236 C   0  0  0  0  0  0  0  0  0  0  0  0
  -30.5151    2.0181   28.6415 C   0  0  0  0  0  0  0  0  0  0  0  0
  -31.1285    1.8459   29.8855 C   0  0  0  0  0  0  0  0  0  0  0  0
  -30.4198    1.2392   30.8999 C   0  0  0  0  0  0  0  0  0  0  0  0
  -29.1131    0.8571   30.7303 C   0  0  0  0  0  0  0  0  0  0  0  0
  -25.5574   -2.3561   28.7692 O   0  0  0  0  0  0  0  0  0  0  0  0
  1  2  2  0
  2  3  1  0
  3  4  1  0
  2  6  1  0
  6  7  1  0
  6 12  1  0
 11 12  1  0
 12 13  1  0
  3 19  2  0
  7 14  2  0
 14 15  1  0
 15 16  2  0
 16 17  1  0
 17 18  2  0
 18  7  1  0
  4  5  2  0
  5  8  1  0
  8  9  2  0
  9 10  1  0
 10 11  2  0
 11  4  1  0
M  END

$$$$
