No_3189-gen_results/8p0m/2024-11-27-11-27-31/
     RDKit          3D

 21 22  0  0  0  0  0  0  0  0999 V2000
  -28.0162   -0.8135   28.8779 C   0  0  0  0  0  0  0  0  0  0  0  0
  -28.4690   -0.7850   29.8287 C   0  0  0  0  0  0  0  0  0  0  0  0
  -26.5455   -0.8762   28.8500 C   0  0  0  0  0  0  0  0  0  0  0  0
  -25.8974   -0.8267   29.8894 C   0  0  0  0  0  0  0  0  0  0  0  0
  -26.4945   -0.7976   31.1740 C   0  0  0  0  0  0  0  0  0  0  0  0
  -27.8589   -0.7585   31.1651 C   0  0  0  0  0  0  0  0  0  0  0  0
  -24.3777   -0.8594   29.9373 C   0  0  0  0  0  0  0  0  0  0  0  0
  -23.7571    0.4559   29.9965 C   0  0  0  0  0  0  0  0  0  0  0  0
  -22.4889    0.6000   29.4442 C   0  0  0  0  0  0  0  0  0  0  0  0
  -21.7492   -0.5588   29.0851 C   0  0  0  0  0  0  0  0  0  0  0  0
  -23.6199   -1.7105   30.8226 C   0  0  0  0  0  0  0  0  0  0  0  0
  -23.9711   -1.3510   28.4259 C   0  0  0  0  0  0  0  0  0  0  0  0
  -22.4658   -1.4413   28.4311 C   0  0  0  0  0  0  0  0  0  0  0  0
  -24.4728    1.6050   30.5417 C   0  0  0  0  0  0  0  0  0  0  0  0
  -24.4703    1.9342   31.6910 O   0  0  0  0  0  0  0  0  0  0  0  0
  -24.8773    2.5516   29.6344 N   0  0  0  0  0  0  0  0  0  0  0  0
  -25.6329    3.8019   30.0175 C   0  0  0  0  0  0  0  0  0  0  0  0
  -25.9736    4.5345   28.8633 C   0  0  0  0  0  0  0  0  0  0  0  0
  -24.7848    2.4772   28.2162 C   0  0  0  0  0  0  0  0  0  0  0  0
  -25.2103    3.2986   27.5502 C   0  0  0  0  0  0  0  0  0  0  0  0
  -26.5021    5.6256   28.3470 C   0  0  0  0  0  0  0  0  0  0  0  0
  4  7  1  0
  7  8  1  0
  9 10  1  0
  7 11  1  0
  7 12  1  0
 10 13  1  0
 12 13  1  0
  8 14  1  0
 14 15  2  0
 14 16  1  0
 16 17  1  0
 17 18  2  3
 16 19  1  0
 19 20  2  0
 18 21  1  0
  8  9  1  0
  1  2  2  0
  2  6  1  0
  6  5  2  0
  5  4  1  0
  4  3  2  0
  3  1  1  0
M  END

$$$$
