No_3494-gen_results/8p0m/2024-11-27-11-27-31/
     RDKit          3D

 27 29  0  0  0  0  0  0  0  0999 V2000
  -28.0727   -1.2542   28.5316 F   0  0  0  0  0  0  0  0  0  0  0  0
  -27.3591   -0.3792   28.7224 C   0  0  0  0  0  0  0  0  0  0  0  0
  -27.7014    0.7608   29.1249 C   0  0  0  0  0  0  0  0  0  0  0  0
  -25.8844   -0.6918   28.4374 C   0  0  0  0  0  0  0  0  0  0  0  0
  -24.9212    0.3779   28.6013 C   0  0  0  0  0  0  0  0  0  0  0  0
  -29.0348    1.0834   29.3750 C   0  0  0  0  0  0  0  0  0  0  0  0
  -23.5125    0.0994   28.3581 C   0  0  0  0  0  0  0  0  0  0  0  0
  -22.6250    1.2017   28.1997 C   0  0  0  0  0  0  0  0  0  0  0  0
  -23.2418    2.4882   27.9466 C   0  0  0  0  0  0  0  0  0  0  0  0
  -24.5396    2.6899   28.0475 C   0  0  0  0  0  0  0  0  0  0  0  0
  -25.4157    1.6586   28.2628 C   0  0  0  0  0  0  0  0  0  0  0  0
  -29.6783    0.1589   29.6175 F   0  0  0  0  0  0  0  0  0  0  0  0
  -29.5869    1.7718   28.3289 F   0  0  0  0  0  0  0  0  0  0  0  0
  -26.8593    1.9232   28.6282 C   0  0  0  0  0  0  0  0  0  0  0  0
  -29.0006    1.9424   30.4281 F   0  0  0  0  0  0  0  0  0  0  0  0
  -21.3121    1.0160   28.1086 O   0  0  0  0  0  0  0  0  0  0  0  0
  -24.9619    4.1586   27.8785 C   0  0  0  0  0  0  0  0  0  0  0  0
  -25.1573    4.8985   28.7424 O   0  0  0  0  0  0  0  0  0  0  0  0
  -25.0126    4.5129   26.5951 O   0  0  0  0  0  0  0  0  0  0  0  0
  -26.3170    5.7375   28.8231 C   0  0  0  0  0  0  0  0  0  0  0  0
  -26.1674    7.0486   29.0547 C   0  0  0  0  0  0  0  0  0  0  0  0
  -26.7773    7.8544   29.5380 C   0  0  0  0  0  0  0  0  0  0  0  0
  -26.4709    9.3054   29.7512 C   0  0  0  0  0  0  0  0  0  0  0  0
  -25.2022    9.7297   29.2791 C   0  0  0  0  0  0  0  0  0  0  0  0
  -24.3483    8.7925   28.6358 C   0  0  0  0  0  0  0  0  0  0  0  0
  -24.7721    7.4383   28.5330 C   0  0  0  0  0  0  0  0  0  0  0  0
  -27.4307    5.2020   28.9171 O   0  0  0  0  0  0  0  0  0  0  0  0
  1  2  1  0
  3  6  1  0
  6 12  1  0
  6 13  1  0
  6 15  1  0
  8 16  1  0
 10 17  1  0
 17 18  1  0
 17 19  2  0
 18 20  1  0
 20 21  1  0
 20 27  2  0
  2  3  2  0
  3 14  1  0
 14 11  2  0
  5  4  2  0
  4  2  1  0
  5  7  1  0
  7  8  2  0
  8  9  1  0
  9 10  2  0
 10 11  1  0
 11  5  1  0
 21 22  2  0
 22 23  1  0
 23 24  2  0
 24 25  1  0
 25 26  2  0
 26 21  1  0
M  END

$$$$
