No_3330-gen_results/8p0m/2024-11-27-11-27-31/
     RDKit          3D

 12 13  0  0  0  0  0  0  0  0999 V2000
  -28.0162   -0.8135   28.8779 C   0  0  0  0  0  0  0  0  0  0  0  0
  -27.0636   -0.1189   28.6079 C   0  0  0  0  0  0  0  0  0  0  0  0
  -26.9716    0.7139   27.5060 C   0  0  0  0  0  0  0  0  0  0  0  0
  -25.8205    1.4909   27.1160 C   0  0  0  0  0  0  0  0  0  0  0  0
  -24.8579    1.3421   27.6008 C   0  0  0  0  0  0  0  0  0  0  0  0
  -24.6224    0.5295   28.8144 C   0  0  0  0  0  0  0  0  0  0  0  0
  -25.7344   -0.1811   29.1908 C   0  0  0  0  0  0  0  0  0  0  0  0
  -27.9596   -1.4412   30.2523 C   0  0  0  0  0  0  0  0  0  0  0  0
  -26.7274   -1.7699   30.8429 C   0  0  0  0  0  0  0  0  0  0  0  0
  -25.6289   -1.0328   30.4200 C   0  0  0  0  0  0  0  0  0  0  0  0
  -23.5441    2.1652   27.2447 C   0  0  0  0  0  0  0  0  0  0  0  0
  -23.5343    2.6862   26.0035 N   0  0  0  0  0  0  0  0  0  0  0  0
  5 11  1  0
 11 12  2  0
  2  3  1  0
  3  4  2  0
  4  5  1  0
  5  6  2  0
  6  7  1  0
  1  2  2  0
  2  7  1  0
  7 10  2  0
 10  9  1  0
  9  8  2  0
  8  1  1  0
M  END

$$$$
