No_3037-gen_results/8p0m/2024-11-27-11-27-31/
     RDKit          3D

 19 20  0  0  0  0  0  0  0  0999 V2000
  -28.1229   -1.3353   28.4874 O   0  0  0  0  0  0  0  0  0  0  0  0
  -28.5208   -0.4363   29.0779 C   0  0  0  0  0  0  0  0  0  0  0  0
  -28.5894    0.5916   28.9464 C   0  0  0  0  0  0  0  0  0  0  0  0
  -28.7865   -0.8872   30.4874 N   0  0  0  0  0  0  0  0  0  0  0  0
  -29.3324    1.6324   29.5096 C   0  0  0  0  0  0  0  0  0  0  0  0
  -29.4472    0.0430   31.3167 C   0  0  0  0  0  0  0  0  0  0  0  0
  -29.6643    1.2919   30.8941 C   0  0  0  0  0  0  0  0  0  0  0  0
  -28.1926    1.0261   27.4413 C   0  0  0  0  0  0  0  0  0  0  0  0
  -28.7904    1.1567   26.5058 C   0  0  0  0  0  0  0  0  0  0  0  0
  -28.2617    1.4598   25.1801 C   0  0  0  0  0  0  0  0  0  0  0  0
  -29.0037    1.5752   24.0150 C   0  0  0  0  0  0  0  0  0  0  0  0
  -26.7042    0.8866   27.2410 C   0  0  0  0  0  0  0  0  0  0  0  0
  -26.0606    1.1498   26.0389 C   0  0  0  0  0  0  0  0  0  0  0  0
  -26.8527    1.3887   24.9323 C   0  0  0  0  0  0  0  0  0  0  0  0
  -30.4370    1.8815   24.2540 C   0  0  0  0  0  0  0  0  0  0  0  0
  -30.8768    2.4672   25.0929 C   0  0  0  0  0  0  0  0  0  0  0  0
  -32.3391    2.8621   25.1767 C   0  0  0  0  0  0  0  0  0  0  0  0
  -33.1066    2.3823   24.1738 C   0  0  0  0  0  0  0  0  0  0  0  0
  -32.6067    1.7076   23.0850 C   0  0  0  0  0  0  0  0  0  0  0  0
  1  2  2  0
  2  3  1  0
  2  4  1  0
  4  6  1  0
  5  7  1  0
  6  7  1  0
  3  8  1  0
 11 15  1  0
 15 16  2  3
 16 17  1  0
 17 18  2  3
 18 19  1  0
 11 10  1  0
  3  5  1  0
  8  9  2  0
  9 10  1  0
 10 14  2  0
 14 13  1  0
 13 12  2  0
 12  8  1  0
M  END

$$$$
