No_3901-gen_results/8p0m/2024-11-27-11-27-31/
     RDKit          3D

 21 24  0  0  0  0  0  0  0  0999 V2000
  -28.0162   -0.8135   28.8779 C   0  0  0  0  0  0  0  0  0  0  0  0
  -27.0636   -0.1189   28.6079 C   0  0  0  0  0  0  0  0  0  0  0  0
  -26.9716    0.7139   27.5060 C   0  0  0  0  0  0  0  0  0  0  0  0
  -28.1053    0.7744   26.6421 C   0  0  0  0  0  0  0  0  0  0  0  0
  -29.2041    0.1179   27.0477 C   0  0  0  0  0  0  0  0  0  0  0  0
  -29.2127   -0.6088   28.1281 C   0  0  0  0  0  0  0  0  0  0  0  0
  -25.7106    1.4519   27.1380 C   0  0  0  0  0  0  0  0  0  0  0  0
  -24.6052    0.9253   27.6902 C   0  0  0  0  0  0  0  0  0  0  0  0
  -23.3376    1.6509   27.5495 C   0  0  0  0  0  0  0  0  0  0  0  0
  -23.2759    2.6042   26.5496 C   0  0  0  0  0  0  0  0  0  0  0  0
  -25.5691    2.4861   26.2457 C   0  0  0  0  0  0  0  0  0  0  0  0
  -24.3971    3.1285   26.0142 C   0  0  0  0  0  0  0  0  0  0  0  0
  -22.1816    1.1120   28.0869 N   0  0  0  0  0  0  0  0  0  0  0  0
  -22.1949    0.0262   28.9416 C   0  0  0  0  0  0  0  0  0  0  0  0
  -23.3881   -0.6736   29.1179 C   0  0  0  0  0  0  0  0  0  0  0  0
  -24.5390   -0.1971   28.5297 C   0  0  0  0  0  0  0  0  0  0  0  0
  -25.6914   -0.5519   29.1762 C   0  0  0  0  0  0  0  0  0  0  0  0
  -30.4278    0.3247   26.2462 C   0  0  0  0  0  0  0  0  0  0  0  0
  -30.7446   -0.5693   25.4607 O   0  0  0  0  0  0  0  0  0  0  0  0
  -31.1217    1.4063   26.2639 O   0  0  0  0  0  0  0  0  0  0  0  0
  -25.8261   -1.1073   30.3102 O   0  0  0  0  0  0  0  0  0  0  0  0
  3  7  1  0
  2 17  1  0
 16 17  1  0
  5 18  1  0
 18 19  2  0
 18 20  1  0
 17 21  2  0
  7  8  2  0
  9 10  2  0
 10 12  1  0
 12 11  2  0
 11  7  1  0
  1  2  2  0
  2  3  1  0
  3  4  2  0
  4  5  1  0
  5  6  2  0
  6  1  1  0
  8  9  1  0
  9 13  1  0
 13 14  2  0
 14 15  1  0
 15 16  2  0
 16  8  1  0
M  END

$$$$
