No_353-gen_results/8p0m/2024-11-27-11-27-31/
     RDKit          3D

 15 15  0  0  0  0  0  0  0  0999 V2000
  -28.0162   -0.8135   28.8779 C   0  0  0  0  0  0  0  0  0  0  0  0
  -28.4690   -0.7850   29.8287 C   0  0  0  0  0  0  0  0  0  0  0  0
  -28.1960    0.3478   28.0550 C   0  0  0  0  0  0  0  0  0  0  0  0
  -29.0191    1.3501   28.3782 C   0  0  0  0  0  0  0  0  0  0  0  0
  -28.3170   -1.9812   30.8560 C   0  0  0  0  0  0  0  0  0  0  0  0
  -29.5950    1.2859   29.6049 C   0  0  0  0  0  0  0  0  0  0  0  0
  -29.3465    0.2093   30.3749 C   0  0  0  0  0  0  0  0  0  0  0  0
  -27.7818   -2.7964   30.5337 F   0  0  0  0  0  0  0  0  0  0  0  0
  -29.6295   -2.3429   31.3175 F   0  0  0  0  0  0  0  0  0  0  0  0
  -27.7542   -1.5543   32.0805 F   0  0  0  0  0  0  0  0  0  0  0  0
  -27.4337    0.3550   26.6677 C   0  0  0  0  0  0  0  0  0  0  0  0
  -25.8261    0.1409   26.6666 Cl  0  0  0  0  0  0  0  0  0  0  0  0
  -28.0589    0.5754   25.4571 C   0  0  0  0  0  0  0  0  0  0  0  0
  -27.5410    0.1857   24.5319 F   0  0  0  0  0  0  0  0  0  0  0  0
  -28.1868    1.9045   25.2852 F   0  0  0  0  0  0  0  0  0  0  0  0
  2  5  1  0
  5  8  1  0
  5  9  1  0
  5 10  1  0
  3 11  1  0
 11 12  1  0
 11 13  1  0
 13 14  1  0
 13 15  1  0
  1  2  2  0
  2  7  1  0
  7  6  2  0
  6  4  1  0
  4  3  2  0
  3  1  1  0
M  END

$$$$
