No_3067-gen_results/8p0m/2024-11-27-11-27-31/
     RDKit          3D

 24 26  0  0  0  0  0  0  0  0999 V2000
  -28.1493   -0.8198   28.9079 Cl  0  0  0  0  0  0  0  0  0  0  0  0
  -26.9116   -0.0797   28.9452 C   0  0  0  0  0  0  0  0  0  0  0  0
  -25.9665   -0.2123   29.6235 C   0  0  0  0  0  0  0  0  0  0  0  0
  -24.7040    0.5534   29.6218 C   0  0  0  0  0  0  0  0  0  0  0  0
  -24.6011    1.5437   28.6212 C   0  0  0  0  0  0  0  0  0  0  0  0
  -23.4834    2.3847   28.4981 C   0  0  0  0  0  0  0  0  0  0  0  0
  -25.6818    1.7361   27.7552 C   0  0  0  0  0  0  0  0  0  0  0  0
  -26.7771    0.9556   27.8653 C   0  0  0  0  0  0  0  0  0  0  0  0
  -23.0537    2.7280   27.2714 N   0  0  0  0  0  0  0  0  0  0  0  0
  -24.0511    3.1324   26.3715 C   0  0  0  0  0  0  0  0  0  0  0  0
  -25.2889    2.3594   26.4892 C   0  0  0  0  0  0  0  0  0  0  0  0
  -27.8415    1.0639   26.8334 C   0  0  0  0  0  0  0  0  0  0  0  0
  -28.0201    2.0729   26.3093 C   0  0  0  0  0  0  0  0  0  0  0  0
  -26.6342    2.7987   25.7854 C   0  0  0  0  0  0  0  0  0  0  0  0
  -23.6437    0.4462   30.6855 C   0  0  0  0  0  0  0  0  0  0  0  0
  -22.9079   -0.4880   30.4946 F   0  0  0  0  0  0  0  0  0  0  0  0
  -23.4434    1.1947   31.3499 F   0  0  0  0  0  0  0  0  0  0  0  0
  -29.0068    2.4053   25.2671 C   0  0  0  0  0  0  0  0  0  0  0  0
  -29.8513    3.4695   25.6701 C   0  0  0  0  0  0  0  0  0  0  0  0
  -29.5235    4.4114   26.4269 C   0  0  0  0  0  0  0  0  0  0  0  0
  -30.4536    5.5584   26.7544 C   0  0  0  0  0  0  0  0  0  0  0  0
  -30.0559    6.6622   27.5285 C   0  0  0  0  0  0  0  0  0  0  0  0
  -28.7263    6.6908   27.9902 C   0  0  0  0  0  0  0  0  0  0  0  0
  -27.8341    5.6748   27.6922 C   0  0  0  0  0  0  0  0  0  0  0  0
  1  2  1  0
  2  3  2  0
  3  4  1  0
  4  5  2  0
  5  6  1  0
  5  7  1  0
  2  8  1  0
  7  8  2  0
  6  9  1  0
  9 10  2  0
  7 11  1  0
 10 11  1  0
  8 12  1  0
 12 13  2  0
 11 14  1  0
 13 14  1  0
  4 15  1  0
 15 16  1  0
 15 17  1  0
 13 18  1  0
 18 19  1  0
 19 20  2  3
 20 21  1  0
 21 22  2  3
 22 23  1  0
 23 24  2  0
M  END

$$$$
