No_3585-gen_results/8p0m/2024-11-27-11-27-31/
     RDKit          3D

 15 16  0  0  0  0  0  0  0  0999 V2000
  -28.0162   -0.8135   28.8779 C   0  0  0  0  0  0  0  0  0  0  0  0
  -28.4690   -0.7850   29.8287 C   0  0  0  0  0  0  0  0  0  0  0  0
  -26.5042   -0.7777   28.8766 C   0  0  0  0  0  0  0  0  0  0  0  0
  -25.8103   -0.8531   30.1028 C   0  0  0  0  0  0  0  0  0  0  0  0
  -27.9906   -0.8916   31.2257 C   0  0  0  0  0  0  0  0  0  0  0  0
  -26.6042   -0.8676   31.2652 C   0  0  0  0  0  0  0  0  0  0  0  0
  -29.9385   -0.8194   29.8358 O   0  0  0  0  0  0  0  0  0  0  0  0
  -30.5356   -0.1119   28.9448 C   0  0  0  0  0  0  0  0  0  0  0  0
  -31.4855    0.7958   29.2937 C   0  0  0  0  0  0  0  0  0  0  0  0
  -31.8748    0.9675   30.4411 C   0  0  0  0  0  0  0  0  0  0  0  0
  -32.8521    1.9957   30.8533 C   0  0  0  0  0  0  0  0  0  0  0  0
  -33.3834    2.7216   29.7628 C   0  0  0  0  0  0  0  0  0  0  0  0
  -32.0463    1.6331   28.2376 C   0  0  0  0  0  0  0  0  0  0  0  0
  -32.9625    2.5616   28.5157 C   0  0  0  0  0  0  0  0  0  0  0  0
  -29.9164   -0.0971   27.8098 O   0  0  0  0  0  0  0  0  0  0  0  0
  2  7  1  0
  7  8  1  0
  8  9  1  0
  8 15  2  0
  1  2  2  0
  2  5  1  0
  5  6  2  0
  6  4  1  0
  4  3  2  0
  3  1  1  0
  9 10  2  0
 10 11  1  0
 11 12  2  0
 12 14  1  0
 14 13  2  0
 13  9  1  0
M  END

$$$$
