No_3504-gen_results/8p0m/2024-11-27-11-27-31/
     RDKit          3D

 21 23  0  0  0  0  0  0  0  0999 V2000
  -28.0162   -0.8135   28.8779 C   0  0  0  0  0  0  0  0  0  0  0  0
  -28.4690   -0.7850   29.8287 C   0  0  0  0  0  0  0  0  0  0  0  0
  -28.1960    0.3478   28.0550 C   0  0  0  0  0  0  0  0  0  0  0  0
  -27.4421    0.5100   26.7946 C   0  0  0  0  0  0  0  0  0  0  0  0
  -26.4394    0.8329   26.6142 C   0  0  0  0  0  0  0  0  0  0  0  0
  -25.2141    0.6624   26.7020 C   0  0  0  0  0  0  0  0  0  0  0  0
  -24.3985    0.0428   27.6997 C   0  0  0  0  0  0  0  0  0  0  0  0
  -24.6856   -0.9668   28.3772 C   0  0  0  0  0  0  0  0  0  0  0  0
  -23.8309   -1.5610   29.3636 C   0  0  0  0  0  0  0  0  0  0  0  0
  -22.6425   -0.8827   29.5940 C   0  0  0  0  0  0  0  0  0  0  0  0
  -22.2243    0.2189   28.8717 C   0  0  0  0  0  0  0  0  0  0  0  0
  -23.0960    0.7099   27.9469 C   0  0  0  0  0  0  0  0  0  0  0  0
  -29.4649    0.0826   30.3870 C   0  0  0  0  0  0  0  0  0  0  0  0
  -29.7600    1.1726   29.6210 C   0  0  0  0  0  0  0  0  0  0  0  0
  -29.1153    1.3548   28.4625 C   0  0  0  0  0  0  0  0  0  0  0  0
  -28.2701   -0.0666   25.6847 C   0  0  0  0  0  0  0  0  0  0  0  0
  -29.2703    0.8801   25.0953 C   0  0  0  0  0  0  0  0  0  0  0  0
  -24.4256    0.6759   25.4199 C   0  0  0  0  0  0  0  0  0  0  0  0
  -29.0749    2.1365   25.2250 C   0  0  0  0  0  0  0  0  0  0  0  0
  -26.4331    2.5416   26.4346 C   0  0  0  0  0  0  0  0  0  0  0  0
  -27.7752    3.0044   25.5555 C   0  0  0  0  0  0  0  0  0  0  0  0
  3  4  1  0
  4  5  1  0
  5  6  1  0
  6  7  1  0
  4 16  1  0
 16 17  1  0
  6 18  1  0
 17 19  2  0
  5 20  1  0
 19 21  1  0
 20 21  1  0
  1  2  2  0
  2 13  1  0
 13 14  2  0
 14 15  1  0
 15  3  2  0
  3  1  1  0
  7  8  2  0
  8  9  1  0
  9 10  2  0
 10 11  1  0
 11 12  2  0
 12  7  1  0
M  END

$$$$
