No_3050-gen_results/8p0m/2024-11-27-11-27-31/
     RDKit          3D

 15 16  0  0  0  0  0  0  0  0999 V2000
  -28.0162   -0.8135   28.8779 C   0  0  0  0  0  0  0  0  0  0  0  0
  -27.0636   -0.1190   28.6079 C   0  0  0  0  0  0  0  0  0  0  0  0
  -26.9287    1.1713   29.0083 C   0  0  0  0  0  0  0  0  0  0  0  0
  -27.9560    1.7411   29.7840 C   0  0  0  0  0  0  0  0  0  0  0  0
  -29.0569   -0.3271   29.7466 C   0  0  0  0  0  0  0  0  0  0  0  0
  -28.9828    0.9722   30.1516 C   0  0  0  0  0  0  0  0  0  0  0  0
  -25.8815   -0.6260   27.7945 C   0  0  0  0  0  0  0  0  0  0  0  0
  -25.4214    0.1302   26.7096 C   0  0  0  0  0  0  0  0  0  0  0  0
  -24.2859    0.7868   26.6900 C   0  0  0  0  0  0  0  0  0  0  0  0
  -23.9689    1.6716   25.4937 C   0  0  0  0  0  0  0  0  0  0  0  0
  -26.2983    0.1827   25.5593 C   0  0  0  0  0  0  0  0  0  0  0  0
  -27.5546   -0.5040   25.5957 C   0  0  0  0  0  0  0  0  0  0  0  0
  -28.4085   -0.2973   24.4514 C   0  0  0  0  0  0  0  0  0  0  0  0
  -24.7690    1.5330   24.4419 C   0  0  0  0  0  0  0  0  0  0  0  0
  -25.8993    0.8987   24.4932 C   0  0  0  0  0  0  0  0  0  0  0  0
  2  7  1  0
 11 12  1  0
 12 13  1  0
  7  8  1  0
  1  2  2  0
  2  3  1  0
  3  4  2  0
  4  6  1  0
  6  5  2  0
  5  1  1  0
  8  9  2  0
  9 10  1  0
 10 14  2  0
 14 15  1  0
 15 11  2  0
 11  8  1  0
M  END

$$$$
