No_3017-gen_results/8p0m/2024-11-27-11-27-31/
     RDKit          3D

 29 31  0  0  0  0  0  0  0  0999 V2000
  -28.0162   -0.8135   28.8779 C   0  0  0  0  0  0  0  0  0  0  0  0
  -27.0636   -0.1189   28.6079 C   0  0  0  0  0  0  0  0  0  0  0  0
  -25.7647   -0.3897   29.0360 C   0  0  0  0  0  0  0  0  0  0  0  0
  -25.5296   -1.5302   29.9014 C   0  0  0  0  0  0  0  0  0  0  0  0
  -26.6888   -2.2893   30.1810 C   0  0  0  0  0  0  0  0  0  0  0  0
  -27.8727   -1.9508   29.7373 C   0  0  0  0  0  0  0  0  0  0  0  0
  -28.9304   -2.7298   30.1154 O   0  0  0  0  0  0  0  0  0  0  0  0
  -24.5394    0.4211   28.7421 C   0  0  0  0  0  0  0  0  0  0  0  0
  -24.0907    1.3926   29.5983 C   0  0  0  0  0  0  0  0  0  0  0  0
  -22.9647    2.2021   29.2350 C   0  0  0  0  0  0  0  0  0  0  0  0
  -22.2731    1.9763   28.0008 C   0  0  0  0  0  0  0  0  0  0  0  0
  -22.7861    1.0400   27.1628 C   0  0  0  0  0  0  0  0  0  0  0  0
  -23.8730    0.2768   27.4987 C   0  0  0  0  0  0  0  0  0  0  0  0
  -24.8084    1.6277   31.1183 Cl  0  0  0  0  0  0  0  0  0  0  0  0
  -28.7370   -3.9860   30.6687 C   0  0  0  0  0  0  0  0  0  0  0  0
  -29.7231   -4.9054   30.2294 C   0  0  0  0  0  0  0  0  0  0  0  0
  -30.2312   -4.8488   29.1664 O   0  0  0  0  0  0  0  0  0  0  0  0
  -31.5780   -5.2892   28.9704 C   0  0  0  0  0  0  0  0  0  0  0  0
  -31.6429   -6.4769   28.4431 C   0  0  0  0  0  0  0  0  0  0  0  0
  -32.1999   -6.6396   27.2554 C   0  0  0  0  0  0  0  0  0  0  0  0
  -32.1201   -7.9463   26.5221 C   0  0  0  0  0  0  0  0  0  0  0  0
  -31.4814   -8.9976   27.1508 C   0  0  0  0  0  0  0  0  0  0  0  0
  -30.9901   -8.8429   28.4538 C   0  0  0  0  0  0  0  0  0  0  0  0
  -31.0246   -7.6309   29.0381 C   0  0  0  0  0  0  0  0  0  0  0  0
  -32.1729   -4.2413   28.1042 N   0  0  0  0  0  0  0  0  0  0  0  0
  -31.6653   -3.0285   27.9099 C   0  0  0  0  0  0  0  0  0  0  0  0
  -32.5350   -2.1147   27.1325 C   0  0  0  0  0  0  0  0  0  0  0  0
  -32.0804   -1.0236   26.9223 F   0  0  0  0  0  0  0  0  0  0  0  0
  -33.7008   -1.9697   27.7823 F   0  0  0  0  0  0  0  0  0  0  0  0
  6  7  1  0
  3  8  1  0
  9 14  1  0
  7 15  1  0
 15 16  1  0
 16 17  1  0
 17 18  1  0
 18 19  1  0
 18 25  1  0
 25 26  1  0
 26 27  2  3
 27 28  1  0
 27 29  1  0
  1  2  2  0
  2  3  1  0
  3  4  2  0
  4  5  1  0
  5  6  2  0
  6  1  1  0
  8  9  2  0
  9 10  1  0
 10 11  2  0
 11 12  1  0
 12 13  2  0
 13  8  1  0
 19 20  2  0
 20 21  1  0
 21 22  2  0
 22 23  1  0
 23 24  2  0
 24 19  1  0
M  END

$$$$
