No_3444-gen_results/8p0m/2024-11-27-11-27-31/
     RDKit          3D

 14 14  0  0  0  0  0  0  0  0999 V2000
  -28.0162   -0.8135   28.8779 C   0  0  0  0  0  0  0  0  0  0  0  0
  -28.4690   -0.7850   29.8287 C   0  0  0  0  0  0  0  0  0  0  0  0
  -26.5042   -0.7777   28.8766 C   0  0  0  0  0  0  0  0  0  0  0  0
  -25.9150   -0.6580   29.9230 C   0  0  0  0  0  0  0  0  0  0  0  0
  -27.9691   -0.7243   31.2047 C   0  0  0  0  0  0  0  0  0  0  0  0
  -26.5847   -0.6393   31.2062 C   0  0  0  0  0  0  0  0  0  0  0  0
  -24.1810   -0.5661   30.0378 Cl  0  0  0  0  0  0  0  0  0  0  0  0
  -30.1011   -0.8898   29.8970 C   0  0  0  0  0  0  0  0  0  0  0  0
  -30.5804   -0.6471   29.0228 O   0  0  0  0  0  0  0  0  0  0  0  0
  -30.7038   -1.2924   31.0076 O   0  0  0  0  0  0  0  0  0  0  0  0
  -25.5946   -0.7528   27.3651 Cl  0  0  0  0  0  0  0  0  0  0  0  0
  -25.8146   -0.4921   32.5083 C   0  0  0  0  0  0  0  0  0  0  0  0
  -26.1925   -0.1112   33.3936 O   0  0  0  0  0  0  0  0  0  0  0  0
  -24.5828   -1.1114   32.5194 O   0  0  0  0  0  0  0  0  0  0  0  0
  4  7  1  0
  2  8  1  0
  8  9  2  0
  8 10  1  0
  3 11  1  0
  6 12  1  0
 12 13  2  0
 12 14  1  0
  1  2  2  0
  2  5  1  0
  5  6  2  0
  6  4  1  0
  4  3  2  0
  3  1  1  0
M  END

$$$$
