No_3551-gen_results/8p0m/2024-11-27-11-27-31/
     RDKit          3D

 13 13  0  0  0  0  0  0  0  0999 V2000
  -28.0162   -0.8135   28.8779 C   0  0  0  0  0  0  0  0  0  0  0  0
  -28.4690   -0.7850   29.8287 C   0  0  0  0  0  0  0  0  0  0  0  0
  -28.1816    0.4277   28.1134 C   0  0  0  0  0  0  0  0  0  0  0  0
  -28.9841    1.4155   28.5154 C   0  0  0  0  0  0  0  0  0  0  0  0
  -29.3802    0.1384   30.4612 C   0  0  0  0  0  0  0  0  0  0  0  0
  -29.5415    1.2736   29.7242 C   0  0  0  0  0  0  0  0  0  0  0  0
  -27.4586    0.4934   26.7701 C   0  0  0  0  0  0  0  0  0  0  0  0
  -26.1290    0.3456   26.7317 N   0  0  0  0  0  0  0  0  0  0  0  0
  -25.4038   -0.0103   27.7776 C   0  0  0  0  0  0  0  0  0  0  0  0
  -24.0267    0.4819   27.8585 C   0  0  0  0  0  0  0  0  0  0  0  0
  -23.1303    0.1836   28.9145 C   0  0  0  0  0  0  0  0  0  0  0  0
  -21.8728    0.7974   28.9568 C   0  0  0  0  0  0  0  0  0  0  0  0
  -21.4150    1.6119   27.9475 C   0  0  0  0  0  0  0  0  0  0  0  0
  3  7  1  0
  7  8  1  0
  8  9  1  0
  9 10  2  3
 10 11  1  0
 11 12  2  3
 12 13  1  0
  1  2  2  0
  2  5  1  0
  5  6  2  0
  6  4  1  0
  4  3  2  0
  3  1  1  0
M  END

$$$$
