No_3950-gen_results/8p0m/2024-11-27-11-27-31/
     RDKit          3D

 19 21  0  0  0  0  0  0  0  0999 V2000
  -28.0162   -0.8135   28.8779 C   0  0  0  0  0  0  0  0  0  0  0  0
  -27.0636   -0.1190   28.6079 C   0  0  0  0  0  0  0  0  0  0  0  0
  -25.7923   -0.4302   29.0761 C   0  0  0  0  0  0  0  0  0  0  0  0
  -25.5756   -1.5654   29.9363 C   0  0  0  0  0  0  0  0  0  0  0  0
  -26.7354   -2.3004   30.2173 C   0  0  0  0  0  0  0  0  0  0  0  0
  -27.9184   -1.9537   29.7629 C   0  0  0  0  0  0  0  0  0  0  0  0
  -27.1059    1.0338   27.8185 N   0  0  0  0  0  0  0  0  0  0  0  0
  -26.5121    2.0879   27.8509 C   0  0  0  0  0  0  0  0  0  0  0  0
  -26.8216    3.2102   28.1578 C   0  0  0  0  0  0  0  0  0  0  0  0
  -25.9486    4.4225   28.1866 C   0  0  0  0  0  0  0  0  0  0  0  0
  -24.6322    4.2179   27.7143 C   0  0  0  0  0  0  0  0  0  0  0  0
  -25.0930    2.0347   27.4230 N   0  0  0  0  0  0  0  0  0  0  0  0
  -24.2682    3.0157   27.3027 C   0  0  0  0  0  0  0  0  0  0  0  0
  -27.8989    0.8705   26.4690 C   0  0  0  0  0  0  0  0  0  0  0  0
  -27.3607    0.6586   25.3209 C   0  0  0  0  0  0  0  0  0  0  0  0
  -29.2088    1.4415   26.6077 C   0  0  0  0  0  0  0  0  0  0  0  0
  -29.9809    1.4346   25.4977 C   0  0  0  0  0  0  0  0  0  0  0  0
  -28.1207    0.6253   24.1907 C   0  0  0  0  0  0  0  0  0  0  0  0
  -29.4390    1.0567   24.2571 C   0  0  0  0  0  0  0  0  0  0  0  0
  2  7  1  0
  7  8  1  0
  7 14  1  0
  1  2  2  0
  2  3  1  0
  3  4  2  0
  4  5  1  0
  5  6  2  0
  6  1  1  0
 14 15  2  0
 15 18  1  0
 18 19  2  0
 19 17  1  0
 17 16  2  0
 16 14  1  0
  8  9  2  0
  9 10  1  0
 10 11  2  0
 11 13  1  0
 13 12  2  0
 12  8  1  0
M  END

$$$$
