No_3802-gen_results/8p0m/2024-11-27-11-27-31/
     RDKit          3D

 14 15  0  0  0  0  0  0  0  0999 V2000
  -28.0162   -0.8135   28.8779 C   0  0  0  0  0  0  0  0  0  0  0  0
  -27.0636   -0.1190   28.6079 C   0  0  0  0  0  0  0  0  0  0  0  0
  -27.0010    0.6913   27.4910 C   0  0  0  0  0  0  0  0  0  0  0  0
  -25.7770    1.0214   26.9135 C   0  0  0  0  0  0  0  0  0  0  0  0
  -24.6982    0.6762   27.4835 C   0  0  0  0  0  0  0  0  0  0  0  0
  -24.6104   -0.1076   28.6413 C   0  0  0  0  0  0  0  0  0  0  0  0
  -25.8358   -0.5515   29.0863 C   0  0  0  0  0  0  0  0  0  0  0  0
  -28.6442   -0.5434   30.0547 N   0  0  0  0  0  0  0  0  0  0  0  0
  -28.5181    0.4473   30.6473 C   0  0  0  0  0  0  0  0  0  0  0  0
  -28.6568    1.1051   31.4695 C   0  0  0  0  0  0  0  0  0  0  0  0
  -28.8358    2.5044   31.3861 C   0  0  0  0  0  0  0  0  0  0  0  0
  -28.3658    3.1248   30.2625 C   0  0  0  0  0  0  0  0  0  0  0  0
  -28.0120    2.4079   29.2162 C   0  0  0  0  0  0  0  0  0  0  0  0
  -28.0793    1.3590   29.3615 C   0  0  0  0  0  0  0  0  0  0  0  0
  1  2  1  0
  1  8  1  0
  8  9  1  0
  2  3  2  0
  3  4  1  0
  4  5  2  0
  5  6  1  0
  6  7  2  0
  7  2  1  0
  9 10  2  0
 10 11  1  0
 11 12  2  0
 12 13  1  0
 13 14  2  0
 14  9  1  0
M  END

$$$$
