No_3533-gen_results/8p0m/2024-11-27-11-27-31/
     RDKit          3D

 19 21  0  0  0  0  0  0  0  0999 V2000
  -28.0162   -0.8135   28.8779 C   0  0  0  0  0  0  0  0  0  0  0  0
  -27.0636   -0.1189   28.6079 C   0  0  0  0  0  0  0  0  0  0  0  0
  -25.7923   -0.4302   29.0761 C   0  0  0  0  0  0  0  0  0  0  0  0
  -24.5456    0.3494   28.8225 C   0  0  0  0  0  0  0  0  0  0  0  0
  -24.6586    1.4196   27.8878 C   0  0  0  0  0  0  0  0  0  0  0  0
  -25.9471    1.6811   27.3792 C   0  0  0  0  0  0  0  0  0  0  0  0
  -27.0439    0.9739   27.6871 C   0  0  0  0  0  0  0  0  0  0  0  0
  -29.1882   -0.1472   29.0918 N   0  0  0  0  0  0  0  0  0  0  0  0
  -30.2017   -0.7833   29.7303 C   0  0  0  0  0  0  0  0  0  0  0  0
  -23.4507    2.1524   27.6005 C   0  0  0  0  0  0  0  0  0  0  0  0
  -22.2617    1.7464   28.0912 N   0  0  0  0  0  0  0  0  0  0  0  0
  -23.3092    2.1266   25.7255 P   0  0  0  0  0  0  0  0  0  0  0  0
  -22.0114    2.8181   25.5114 O   0  0  0  0  0  0  0  0  0  0  0  0
  -23.2151    0.7005   25.3627 O   0  0  0  0  0  0  0  0  0  0  0  0
  -24.4714    2.8635   25.2546 O   0  0  0  0  0  0  0  0  0  0  0  0
  -29.9308   -1.9686   30.3526 C   0  0  0  0  0  0  0  0  0  0  0  0
  -28.6875   -2.5865   30.3362 C   0  0  0  0  0  0  0  0  0  0  0  0
  -27.5588   -1.7313   30.0569 C   0  0  0  0  0  0  0  0  0  0  0  0
  -26.2020   -1.9557   30.0373 C   0  0  0  0  0  0  0  0  0  0  0  0
  1  2  1  0
  5 10  1  0
 10 11  2  0
 10 12  1  0
 12 13  2  0
 12 14  1  0
 12 15  1  0
  3 19  1  0
 18 19  1  0
  2  3  1  0
  3  4  2  0
  4  5  1  0
  5  6  2  0
  6  7  1  0
  7  2  2  0
  1  8  2  0
  8  9  1  0
  9 16  2  0
 16 17  1  0
 17 18  2  0
 18  1  1  0
M  END

$$$$
