No_3744-gen_results/8p0m/2024-11-27-11-27-31/
     RDKit          3D

 30 35  0  0  0  0  0  0  0  0999 V2000
  -28.0162   -0.8135   28.8779 C   0  0  0  0  0  0  0  0  0  0  0  0
  -28.4690   -0.7850   29.8287 C   0  0  0  0  0  0  0  0  0  0  0  0
  -27.1356    0.2359   28.5352 C   0  0  0  0  0  0  0  0  0  0  0  0
  -26.8745    1.2825   29.3982 C   0  0  0  0  0  0  0  0  0  0  0  0
  -27.5070    1.2380   30.6295 C   0  0  0  0  0  0  0  0  0  0  0  0
  -28.3293    0.1745   30.9350 C   0  0  0  0  0  0  0  0  0  0  0  0
  -26.4077    0.3070   27.2259 C   0  0  0  0  0  0  0  0  0  0  0  0
  -25.1258    0.2690   27.2739 N   0  0  0  0  0  0  0  0  0  0  0  0
  -24.3273    1.1930   26.5971 C   0  0  0  0  0  0  0  0  0  0  0  0
  -22.9827    1.3911   27.0917 C   0  0  0  0  0  0  0  0  0  0  0  0
  -22.5094    0.5845   28.1376 C   0  0  0  0  0  0  0  0  0  0  0  0
  -23.3498   -0.3736   28.7567 C   0  0  0  0  0  0  0  0  0  0  0  0
  -24.6185   -0.4650   28.3551 C   0  0  0  0  0  0  0  0  0  0  0  0
  -26.9770    1.4430   26.4419 C   0  0  0  0  0  0  0  0  0  0  0  0
  -26.0144    2.1547   29.0568 N   0  0  0  0  0  0  0  0  0  0  0  0
  -25.4004    2.8795   30.1066 C   0  0  0  0  0  0  0  0  0  0  0  0
  -25.9795    3.0758   28.0533 C   0  0  0  0  0  0  0  0  0  0  0  0
  -26.9689    3.1865   27.2429 C   0  0  0  0  0  0  0  0  0  0  0  0
  -25.6884    4.5383   28.3982 C   0  0  0  0  0  0  0  0  0  0  0  0
  -27.5638    1.4329   25.1393 C   0  0  0  0  0  0  0  0  0  0  0  0
  -25.3176    5.4406   27.5764 O   0  0  0  0  0  0  0  0  0  0  0  0
  -24.6876    4.3943   29.6974 C   0  0  0  0  0  0  0  0  0  0  0  0
  -24.8193    5.3084   30.6677 O   0  0  0  0  0  0  0  0  0  0  0  0
  -28.6400    2.2028   24.8156 C   0  0  0  0  0  0  0  0  0  0  0  0
  -27.0669    0.4245   24.3036 C   0  0  0  0  0  0  0  0  0  0  0  0
  -29.2884    3.1134   25.6633 C   0  0  0  0  0  0  0  0  0  0  0  0
  -28.0595    3.8727   26.6341 C   0  0  0  0  0  0  0  0  0  0  0  0
  -26.7696   -0.9427   26.3492 C   0  0  0  0  0  0  0  0  0  0  0  0
  -26.7094   -0.8371   24.9047 C   0  0  0  0  0  0  0  0  0  0  0  0
  -27.0085   -1.8955   26.9130 O   0  0  0  0  0  0  0  0  0  0  0  0
  3  7  1  0
  7  8  1  0
  8  9  1  0
 10 11  1  0
  8 13  1  0
 12 13  1  0
  7 14  1  0
  4 15  1  0
 15 16  1  0
 15 17  1  0
 17 18  1  0
 17 19  1  0
 19 21  2  0
 16 22  1  0
 19 22  1  0
 22 23  1  0
 20 25  1  0
  7 28  1  0
 25 29  1  0
 28 29  1  0
 28 30  2  0
  9 10  1  0
 11 12  1  0
 14 18  2  0
 18 27  1  0
 27 26  2  0
 26 24  1  0
 24 20  2  0
 20 14  1  0
  1  2  2  0
  2  6  1  0
  6  5  2  0
  5  4  1  0
  4  3  2  0
  3  1  1  0
M  END

$$$$
