No_3072-gen_results/8p0m/2024-11-27-11-27-31/
     RDKit          3D

 20 21  0  0  0  0  0  0  0  0999 V2000
  -28.0162   -0.8135   28.8779 C   0  0  0  0  0  0  0  0  0  0  0  0
  -27.0636   -0.1189   28.6079 C   0  0  0  0  0  0  0  0  0  0  0  0
  -26.8756    1.1325   28.9134 C   0  0  0  0  0  0  0  0  0  0  0  0
  -25.6883    1.9515   28.5672 C   0  0  0  0  0  0  0  0  0  0  0  0
  -24.6394    1.2834   27.8753 C   0  0  0  0  0  0  0  0  0  0  0  0
  -24.8181   -0.0802   27.6166 C   0  0  0  0  0  0  0  0  0  0  0  0
  -25.9311   -0.7717   27.9696 C   0  0  0  0  0  0  0  0  0  0  0  0
  -28.6501   -0.5385   30.2330 C   0  0  0  0  0  0  0  0  0  0  0  0
  -29.7142   -1.2183   30.6194 C   0  0  0  0  0  0  0  0  0  0  0  0
  -23.4428    1.9731   27.4688 C   0  0  0  0  0  0  0  0  0  0  0  0
  -23.4390    2.4064   26.3386 F   0  0  0  0  0  0  0  0  0  0  0  0
  -23.1013    2.9905   28.3365 F   0  0  0  0  0  0  0  0  0  0  0  0
  -22.3306    1.1229   27.6206 F   0  0  0  0  0  0  0  0  0  0  0  0
  -30.3234   -1.9545   29.8486 C   0  0  0  0  0  0  0  0  0  0  0  0
  -30.2151   -2.1169   28.5853 C   0  0  0  0  0  0  0  0  0  0  0  0
  -29.0827   -1.4256   28.0390 C   0  0  0  0  0  0  0  0  0  0  0  0
  -31.8533   -2.8543   30.4120 Cl  0  0  0  0  0  0  0  0  0  0  0  0
  -27.8754    1.9849   29.6622 C   0  0  0  0  0  0  0  0  0  0  0  0
  -27.9727    3.4259   29.3693 C   0  0  0  0  0  0  0  0  0  0  0  0
  -28.9241    4.0015   29.9978 N   0  0  0  0  0  0  0  0  0  0  0  0
  5 10  1  0
 10 11  1  0
 10 12  1  0
 10 13  1  0
 14 17  1  0
  3 18  1  0
 18 19  1  0
 19 20  2  0
  1  2  1  0
  1  8  2  0
  8  9  1  0
  9 14  2  0
 14 15  1  0
 15 16  2  0
 16  1  1  0
  2  3  2  0
  3  4  1  0
  4  5  2  0
  5  6  1  0
  6  7  2  0
  7  2  1  0
M  END

$$$$
