No_3265-gen_results/8p0m/2024-11-27-11-27-31/
     RDKit          3D

 20 22  0  0  0  0  0  0  0  0999 V2000
  -28.0162   -0.8135   28.8779 C   0  0  0  0  0  0  0  0  0  0  0  0
  -27.0636   -0.1190   28.6079 C   0  0  0  0  0  0  0  0  0  0  0  0
  -25.7923   -0.4302   29.0761 C   0  0  0  0  0  0  0  0  0  0  0  0
  -24.5456    0.3494   28.8225 C   0  0  0  0  0  0  0  0  0  0  0  0
  -23.2409    0.0217   29.3323 C   0  0  0  0  0  0  0  0  0  0  0  0
  -27.8820   -1.8995   29.8633 C   0  0  0  0  0  0  0  0  0  0  0  0
  -26.6706   -2.3272   30.3212 C   0  0  0  0  0  0  0  0  0  0  0  0
  -25.5433   -1.5852   29.9316 C   0  0  0  0  0  0  0  0  0  0  0  0
  -22.1918    0.8302   29.0004 C   0  0  0  0  0  0  0  0  0  0  0  0
  -22.1472    1.7783   28.0287 C   0  0  0  0  0  0  0  0  0  0  0  0
  -24.5322    1.3987   27.8163 C   0  0  0  0  0  0  0  0  0  0  0  0
  -23.3620    2.0694   27.4607 C   0  0  0  0  0  0  0  0  0  0  0  0
  -29.3948   -2.9167   30.3991 Br  0  0  0  0  0  0  0  0  0  0  0  0
  -23.4844    3.0228   26.5014 O   0  0  0  0  0  0  0  0  0  0  0  0
  -24.5640    2.7190   25.6197 C   0  0  0  0  0  0  0  0  0  0  0  0
  -25.5453    1.5916   26.8707 C   0  0  0  0  0  0  0  0  0  0  0  0
  -26.4946    2.3763   27.0781 O   0  0  0  0  0  0  0  0  0  0  0  0
  -27.6916    2.2977   26.3796 C   0  0  0  0  0  0  0  0  0  0  0  0
  -28.8006    2.8473   26.9959 C   0  0  0  0  0  0  0  0  0  0  0  0
  -29.7456    3.4931   26.5944 Cl  0  0  0  0  0  0  0  0  0  0  0  0
  3  4  1  0
  6 13  1  0
 12 14  1  0
 14 15  1  0
 11 16  1  0
 15 16  1  0
 16 17  1  0
 17 18  1  0
 18 19  2  3
 19 20  1  0
  1  2  2  0
  2  3  1  0
  3  8  2  0
  8  7  1  0
  7  6  2  0
  6  1  1  0
  4  5  2  0
  5  9  1  0
  9 10  2  0
 10 12  1  0
 12 11  2  0
 11  4  1  0
M  END

$$$$
