No_3401-gen_results/8p0m/2024-11-27-11-27-31/
     RDKit          3D

 17 18  0  0  0  0  0  0  0  0999 V2000
  -28.0162   -0.8135   28.8779 C   0  0  0  0  0  0  0  0  0  0  0  0
  -27.0636   -0.1189   28.6079 C   0  0  0  0  0  0  0  0  0  0  0  0
  -27.0010    0.6913   27.4910 C   0  0  0  0  0  0  0  0  0  0  0  0
  -25.7770    1.0214   26.9135 C   0  0  0  0  0  0  0  0  0  0  0  0
  -24.5088    0.7364   27.5686 C   0  0  0  0  0  0  0  0  0  0  0  0
  -24.5930   -0.0361   28.7390 C   0  0  0  0  0  0  0  0  0  0  0  0
  -25.8114   -0.4771   29.1584 C   0  0  0  0  0  0  0  0  0  0  0  0
  -28.6413   -0.4024   30.1937 C   0  0  0  0  0  0  0  0  0  0  0  0
  -28.5021    0.6916   30.6007 C   0  0  0  0  0  0  0  0  0  0  0  0
  -29.1512    1.1258   31.9235 C   0  0  0  0  0  0  0  0  0  0  0  0
  -28.9893    2.4406   32.4607 C   0  0  0  0  0  0  0  0  0  0  0  0
  -28.1764    3.3511   31.6902 C   0  0  0  0  0  0  0  0  0  0  0  0
  -27.5169    2.9336   30.5300 C   0  0  0  0  0  0  0  0  0  0  0  0
  -27.6414    1.6916   30.0711 C   0  0  0  0  0  0  0  0  0  0  0  0
  -23.2786   -0.4022   29.3509 C   0  0  0  0  0  0  0  0  0  0  0  0
  -22.0949    0.1219   28.9682 C   0  0  0  0  0  0  0  0  0  0  0  0
  -22.1063    0.9851   27.7911 C   0  0  0  0  0  0  0  0  0  0  0  0
  1  2  1  0
  1  8  1  0
  6 15  1  0
 15 16  2  3
 16 17  1  0
  8  9  1  0
  2  3  2  0
  3  4  1  0
  4  5  2  0
  5  6  1  0
  6  7  2  0
  7  2  1  0
  9 10  2  0
 10 11  1  0
 11 12  2  0
 12 13  1  0
 13 14  2  0
 14  9  1  0
M  END

$$$$
