No_3807-gen_results/8p0m/2024-11-27-11-27-31/
     RDKit          3D

 29 32  0  0  0  0  0  0  0  0999 V2000
  -28.0162   -0.8135   28.8779 C   0  0  0  0  0  0  0  0  0  0  0  0
  -28.4690   -0.7850   29.8287 C   0  0  0  0  0  0  0  0  0  0  0  0
  -26.5042   -0.7777   28.8766 C   0  0  0  0  0  0  0  0  0  0  0  0
  -25.8103   -0.8531   30.1028 C   0  0  0  0  0  0  0  0  0  0  0  0
  -27.9906   -0.8916   31.2257 C   0  0  0  0  0  0  0  0  0  0  0  0
  -26.6042   -0.8676   31.2652 C   0  0  0  0  0  0  0  0  0  0  0  0
  -30.0739   -0.8360   29.8615 C   0  0  0  0  0  0  0  0  0  0  0  0
  -30.5608   -0.4417   28.9417 O   0  0  0  0  0  0  0  0  0  0  0  0
  -30.7042   -1.7423   30.7732 N   0  0  0  0  0  0  0  0  0  0  0  0
  -32.1088   -1.8935   30.6670 C   0  0  0  0  0  0  0  0  0  0  0  0
  -32.9114   -1.2465   30.4029 C   0  0  0  0  0  0  0  0  0  0  0  0
  -34.2920   -1.5473   30.3124 C   0  0  0  0  0  0  0  0  0  0  0  0
  -32.3932   -3.2900   31.0803 C   0  0  0  0  0  0  0  0  0  0  0  0
  -31.3904   -4.2827   31.4687 C   0  0  0  0  0  0  0  0  0  0  0  0
  -34.5772   -2.8290   30.7198 C   0  0  0  0  0  0  0  0  0  0  0  0
  -33.6797   -3.6551   31.1004 C   0  0  0  0  0  0  0  0  0  0  0  0
  -30.7602   -4.2874   32.5795 C   0  0  0  0  0  0  0  0  0  0  0  0
  -29.7035   -5.2296   32.9217 C   0  0  0  0  0  0  0  0  0  0  0  0
  -29.2337   -6.0244   31.8500 C   0  0  0  0  0  0  0  0  0  0  0  0
  -30.8002   -5.1265   30.4582 C   0  0  0  0  0  0  0  0  0  0  0  0
  -29.8435   -5.9365   30.6332 C   0  0  0  0  0  0  0  0  0  0  0  0
  -31.4079   -4.9979   29.0472 C   0  0  0  0  0  0  0  0  0  0  0  0
  -31.2880   -6.1408   28.2643 C   0  0  0  0  0  0  0  0  0  0  0  0
  -31.2647   -5.7807   26.8782 C   0  0  0  0  0  0  0  0  0  0  0  0
  -32.4707   -5.1833   26.5214 C   0  0  0  0  0  0  0  0  0  0  0  0
  -32.7696   -3.9522   27.3204 C   0  0  0  0  0  0  0  0  0  0  0  0
  -32.2426   -3.9373   28.5951 C   0  0  0  0  0  0  0  0  0  0  0  0
  -33.6808   -2.9993   26.7411 C   0  0  0  0  0  0  0  0  0  0  0  0
  -34.9987   -3.2853   26.6530 C   0  0  0  0  0  0  0  0  0  0  0  0
  2  7  1  0
  7  8  2  0
  7  9  1  0
  9 10  1  0
 13 14  1  0
 20 22  1  0
 26 28  1  0
 28 29  2  0
 22 23  2  0
 23 24  1  0
 24 25  2  0
 25 26  1  0
 26 27  2  0
 27 22  1  0
 14 17  2  0
 17 18  1  0
 18 19  2  0
 19 21  1  0
 21 20  2  0
 20 14  1  0
 10 11  2  0
 11 12  1  0
 12 15  2  0
 15 16  1  0
 16 13  2  0
 13 10  1  0
  1  2  2  0
  2  5  1  0
  5  6  2  0
  6  4  1  0
  4  3  2  0
  3  1  1  0
M  END

$$$$
