No_3020-gen_results/8p0m/2024-11-27-11-27-31/
     RDKit          3D

 25 26  0  0  0  0  0  0  0  0999 V2000
  -28.0162   -0.8135   28.8779 C   0  0  0  0  0  0  0  0  0  0  0  0
  -28.4690   -0.7850   29.8287 C   0  0  0  0  0  0  0  0  0  0  0  0
  -28.1960    0.3478   28.0550 C   0  0  0  0  0  0  0  0  0  0  0  0
  -29.0191    1.3501   28.3782 C   0  0  0  0  0  0  0  0  0  0  0  0
  -29.4107    0.1803   30.3782 C   0  0  0  0  0  0  0  0  0  0  0  0
  -29.6059    1.2495   29.6193 C   0  0  0  0  0  0  0  0  0  0  0  0
  -27.4597    0.3802   26.7091 C   0  0  0  0  0  0  0  0  0  0  0  0
  -26.6620    1.4083   26.5085 N   0  0  0  0  0  0  0  0  0  0  0  0
  -25.4040    1.1977   26.0613 C   0  0  0  0  0  0  0  0  0  0  0  0
  -24.4171    2.2551   26.1450 C   0  0  0  0  0  0  0  0  0  0  0  0
  -23.0482    1.9968   26.1814 C   0  0  0  0  0  0  0  0  0  0  0  0
  -22.4733    1.2978   27.1777 C   0  0  0  0  0  0  0  0  0  0  0  0
  -21.0877    1.4560   27.5857 C   0  0  0  0  0  0  0  0  0  0  0  0
  -23.2671    0.3613   27.9608 C   0  0  0  0  0  0  0  0  0  0  0  0
  -22.6650   -0.3802   29.0286 C   0  0  0  0  0  0  0  0  0  0  0  0
  -20.5514    0.7135   28.6200 C   0  0  0  0  0  0  0  0  0  0  0  0
  -21.3499   -0.2178   29.3045 C   0  0  0  0  0  0  0  0  0  0  0  0
  -27.3098    2.5195   25.6837 C   0  0  0  0  0  0  0  0  0  0  0  0
  -23.5385   -1.3428   29.7101 C   0  0  0  0  0  0  0  0  0  0  0  0
  -24.1219   -1.0137   30.8000 N   0  0  0  0  0  0  0  0  0  0  0  0
  -23.4683   -0.6475   31.8289 C   0  0  0  0  0  0  0  0  0  0  0  0
  -25.5416   -1.1785   31.0029 C   0  0  0  0  0  0  0  0  0  0  0  0
  -26.1784   -0.0169   31.7440 C   0  0  0  0  0  0  0  0  0  0  0  0
  -25.4659    0.2254   33.0161 C   0  0  0  0  0  0  0  0  0  0  0  0
  -24.0153    0.2430   32.8305 N   0  0  0  0  0  0  0  0  0  0  0  0
  3  7  1  0
  7  8  1  0
  8  9  1  0
  9 10  2  3
 10 11  1  0
  8 18  1  0
 15 19  1  0
 19 20  1  0
 20 21  1  0
 20 22  1  0
 22 23  3  0
 23 24  1  0
 21 25  1  0
 11 12  1  0
  1  2  2  0
  2  5  1  0
  5  6  2  0
  6  4  1  0
  4  3  2  0
  3  1  1  0
 12 13  2  0
 13 16  1  0
 16 17  2  0
 17 15  1  0
 15 14  2  0
 14 12  1  0
M  END

$$$$
