No_3099-gen_results/8p0m/2024-11-27-11-27-31/
     RDKit          3D

 16 17  0  0  0  0  0  0  0  0999 V2000
  -28.0162   -0.8135   28.8779 C   0  0  0  0  0  0  0  0  0  0  0  0
  -28.4690   -0.7850   29.8287 C   0  0  0  0  0  0  0  0  0  0  0  0
  -27.1356    0.2359   28.5352 C   0  0  0  0  0  0  0  0  0  0  0  0
  -26.3351    0.2900   27.2835 C   0  0  0  0  0  0  0  0  0  0  0  0
  -29.3807   -1.9134   30.3549 C   0  0  0  0  0  0  0  0  0  0  0  0
  -28.2016    0.2191   30.8629 C   0  0  0  0  0  0  0  0  0  0  0  0
  -27.3787    1.2817   30.6151 C   0  0  0  0  0  0  0  0  0  0  0  0
  -26.7396    1.2931   29.4287 C   0  0  0  0  0  0  0  0  0  0  0  0
  -25.2501    0.8183   27.0018 C   0  0  0  0  0  0  0  0  0  0  0  0
  -24.5823    0.8128   25.7598 C   0  0  0  0  0  0  0  0  0  0  0  0
  -23.4258    1.5513   25.5474 C   0  0  0  0  0  0  0  0  0  0  0  0
  -22.8556    2.2769   26.5888 C   0  0  0  0  0  0  0  0  0  0  0  0
  -24.5200    1.6309   27.9482 C   0  0  0  0  0  0  0  0  0  0  0  0
  -23.3321    2.2609   27.7462 C   0  0  0  0  0  0  0  0  0  0  0  0
  -30.2942   -2.2491   29.7585 O   0  0  0  0  0  0  0  0  0  0  0  0
  -29.0297   -2.6394   31.4872 O   0  0  0  0  0  0  0  0  0  0  0  0
  3  4  1  0
  2  5  1  0
  5 15  2  0
  5 16  1  0
  4  9  1  0
  9 10  2  0
 10 11  1  0
 11 12  2  0
 12 14  1  0
 14 13  2  0
 13  9  1  0
  1  2  2  0
  2  6  1  0
  6  7  2  0
  7  8  1  0
  8  3  2  0
  3  1  1  0
M  END

$$$$
