No_3563-gen_results/8p0m/2024-11-27-11-27-31/
     RDKit          3D

 21 22  0  0  0  0  0  0  0  0999 V2000
  -28.0162   -0.8135   28.8779 C   0  0  0  0  0  0  0  0  0  0  0  0
  -28.4690   -0.7850   29.8287 C   0  0  0  0  0  0  0  0  0  0  0  0
  -26.5042   -0.7777   28.8766 C   0  0  0  0  0  0  0  0  0  0  0  0
  -25.7622   -0.0022   27.9705 C   0  0  0  0  0  0  0  0  0  0  0  0
  -25.2031    1.1747   28.5115 C   0  0  0  0  0  0  0  0  0  0  0  0
  -25.5666    2.2906   28.2710 C   0  0  0  0  0  0  0  0  0  0  0  0
  -28.0143   -1.4953   31.0937 C   0  0  0  0  0  0  0  0  0  0  0  0
  -26.6116   -1.5900   31.1429 C   0  0  0  0  0  0  0  0  0  0  0  0
  -25.8203   -1.2412   30.0566 C   0  0  0  0  0  0  0  0  0  0  0  0
  -24.8917    3.4936   28.7538 C   0  0  0  0  0  0  0  0  0  0  0  0
  -25.5392    4.9900   28.4123 Cl  0  0  0  0  0  0  0  0  0  0  0  0
  -23.8138    0.9064   29.0814 C   0  0  0  0  0  0  0  0  0  0  0  0
  -23.1077   -0.2192   29.1423 C   0  0  0  0  0  0  0  0  0  0  0  0
  -29.6692   -0.2472   30.0502 O   0  0  0  0  0  0  0  0  0  0  0  0
  -24.5772    3.4599   30.0124 F   0  0  0  0  0  0  0  0  0  0  0  0
  -23.6332    3.4861   28.1197 F   0  0  0  0  0  0  0  0  0  0  0  0
  -22.1675   -0.4991   28.4940 C   0  0  0  0  0  0  0  0  0  0  0  0
  -21.4235    0.6463   27.9521 C   0  0  0  0  0  0  0  0  0  0  0  0
  -21.9499    1.8556   27.5755 C   0  0  0  0  0  0  0  0  0  0  0  0
  -22.9313    2.1700   28.8945 C   0  0  0  0  0  0  0  0  0  0  0  0
  -22.3452    2.5490   29.8721 F   0  0  0  0  0  0  0  0  0  0  0  0
  3  4  1  0
  4  5  1  0
  5  6  2  3
  6 10  1  0
 10 11  1  0
  5 12  1  0
  2 14  1  0
 10 15  1  0
 10 16  1  0
 20 21  1  0
 12 13  2  0
 13 17  1  0
 17 18  2  0
 18 19  1  0
 19 20  2  0
 20 12  1  0
  1  2  2  0
  2  7  1  0
  7  8  2  0
  8  9  1  0
  9  3  2  0
  3  1  1  0
M  END

$$$$
