No_3755-gen_results/8p0m/2024-11-27-11-27-31/
     RDKit          3D

 17 18  0  0  0  0  0  0  0  0999 V2000
  -28.0162   -0.8135   28.8779 C   0  0  0  0  0  0  0  0  0  0  0  0
  -28.4690   -0.7850   29.8287 C   0  0  0  0  0  0  0  0  0  0  0  0
  -26.5455   -0.8762   28.8500 C   0  0  0  0  0  0  0  0  0  0  0  0
  -25.8041   -1.0324   30.0571 C   0  0  0  0  0  0  0  0  0  0  0  0
  -27.9437   -0.9869   31.2075 C   0  0  0  0  0  0  0  0  0  0  0  0
  -26.5825   -1.0386   31.2231 C   0  0  0  0  0  0  0  0  0  0  0  0
  -29.8926   -0.8492   29.9795 F   0  0  0  0  0  0  0  0  0  0  0  0
  -24.3745   -1.0707   30.0619 C   0  0  0  0  0  0  0  0  0  0  0  0
  -23.7096    0.2160   30.0923 C   0  0  0  0  0  0  0  0  0  0  0  0
  -23.1810    0.8061   28.9411 C   0  0  0  0  0  0  0  0  0  0  0  0
  -23.6412    2.0185   28.4113 C   0  0  0  0  0  0  0  0  0  0  0  0
  -24.6551    2.6170   29.0693 C   0  0  0  0  0  0  0  0  0  0  0  0
  -24.8809    2.4070   30.4603 C   0  0  0  0  0  0  0  0  0  0  0  0
  -24.9184    1.1521   30.6373 C   0  0  0  0  0  0  0  0  0  0  0  0
  -22.5586    0.2425   31.1771 C   0  0  0  0  0  0  0  0  0  0  0  0
  -23.9744   -2.0395   31.1392 C   0  0  0  0  0  0  0  0  0  0  0  0
  -23.8937   -1.7526   28.6682 C   0  0  0  0  0  0  0  0  0  0  0  0
  2  7  1  0
  4  8  1  0
  8  9  1  0
  9 10  1  0
 11 12  1  0
  9 14  1  0
 13 14  1  0
  9 15  1  0
  8 16  1  0
  8 17  1  0
 10 11  1  0
 12 13  1  0
  1  2  2  0
  2  5  1  0
  5  6  2  0
  6  4  1  0
  4  3  2  0
  3  1  1  0
M  END

$$$$
