No_3625-gen_results/8p0m/2024-11-27-11-27-31/
     RDKit          3D

 18 19  0  0  0  0  0  0  0  0999 V2000
  -28.0162   -0.8135   28.8779 C   0  0  0  0  0  0  0  0  0  0  0  0
  -27.0636   -0.1189   28.6079 C   0  0  0  0  0  0  0  0  0  0  0  0
  -25.7923   -0.4302   29.0761 C   0  0  0  0  0  0  0  0  0  0  0  0
  -24.5456    0.3494   28.8225 C   0  0  0  0  0  0  0  0  0  0  0  0
  -24.6586    1.4196   27.8878 C   0  0  0  0  0  0  0  0  0  0  0  0
  -25.9471    1.6811   27.3792 C   0  0  0  0  0  0  0  0  0  0  0  0
  -27.0439    0.9739   27.6871 C   0  0  0  0  0  0  0  0  0  0  0  0
  -28.6597   -0.4600   30.2006 C   0  0  0  0  0  0  0  0  0  0  0  0
  -28.5257    0.5013   30.6968 C   0  0  0  0  0  0  0  0  0  0  0  0
  -29.2488    0.8145   32.0566 C   0  0  0  0  0  0  0  0  0  0  0  0
  -29.0909    2.0459   32.7521 C   0  0  0  0  0  0  0  0  0  0  0  0
  -28.2021    2.9968   32.1141 C   0  0  0  0  0  0  0  0  0  0  0  0
  -27.4779    2.7228   30.9535 C   0  0  0  0  0  0  0  0  0  0  0  0
  -27.6027    1.5573   30.3689 C   0  0  0  0  0  0  0  0  0  0  0  0
  -23.2441   -0.0974   29.3142 C   0  0  0  0  0  0  0  0  0  0  0  0
  -23.1565   -1.0870   30.5313 Cl  0  0  0  0  0  0  0  0  0  0  0  0
  -22.0389    0.3847   28.6896 C   0  0  0  0  0  0  0  0  0  0  0  0
  -20.8577   -0.0634   29.0964 N   0  0  0  0  0  0  0  0  0  0  0  0
  1  2  1  0
  1  8  1  0
  4 15  1  0
 15 16  1  0
 15 17  1  0
 17 18  1  0
  8  9  1  0
  2  3  2  0
  3  4  1  0
  4  5  2  0
  5  6  1  0
  6  7  2  0
  7  2  1  0
  9 10  2  0
 10 11  1  0
 11 12  2  0
 12 13  1  0
 13 14  2  0
 14  9  1  0
M  END

$$$$
