No_3502-gen_results/8p0m/2024-11-27-11-27-31/
     RDKit          3D

 17 18  0  0  0  0  0  0  0  0999 V2000
  -28.0162   -0.8135   28.8779 C   0  0  0  0  0  0  0  0  0  0  0  0
  -28.4690   -0.7850   29.8287 C   0  0  0  0  0  0  0  0  0  0  0  0
  -26.5455   -0.8762   28.8500 C   0  0  0  0  0  0  0  0  0  0  0  0
  -25.8041   -1.0324   30.0571 C   0  0  0  0  0  0  0  0  0  0  0  0
  -30.0055   -0.7457   29.8978 C   0  0  0  0  0  0  0  0  0  0  0  0
  -26.5747   -1.0565   31.2005 C   0  0  0  0  0  0  0  0  0  0  0  0
  -27.9251   -0.9738   31.1683 C   0  0  0  0  0  0  0  0  0  0  0  0
  -30.5607   -0.3340   29.1001 O   0  0  0  0  0  0  0  0  0  0  0  0
  -30.6704   -1.3558   31.0362 N   0  0  0  0  0  0  0  0  0  0  0  0
  -32.0970   -1.3639   31.0667 C   0  0  0  0  0  0  0  0  0  0  0  0
  -24.3613   -1.0924   30.0689 C   0  0  0  0  0  0  0  0  0  0  0  0
  -23.5742   -0.7135   29.0765 C   0  0  0  0  0  0  0  0  0  0  0  0
  -22.1303   -0.6310   29.2064 C   0  0  0  0  0  0  0  0  0  0  0  0
  -21.4934    0.4698   28.8367 C   0  0  0  0  0  0  0  0  0  0  0  0
  -22.0372    1.3668   27.8347 C   0  0  0  0  0  0  0  0  0  0  0  0
  -23.4442    1.3271   27.6690 C   0  0  0  0  0  0  0  0  0  0  0  0
  -24.2044    0.4334   28.3171 C   0  0  0  0  0  0  0  0  0  0  0  0
  2  5  1  0
  5  8  2  0
  5  9  1  0
  9 10  1  0
  4 11  1  0
 11 12  1  0
 12 13  2  0
 13 14  1  0
 14 15  2  0
 15 16  1  0
 16 17  2  0
 17 12  1  0
  1  2  2  0
  2  7  1  0
  7  6  2  0
  6  4  1  0
  4  3  2  0
  3  1  1  0
M  END

$$$$
