No_3278-gen_results/8p0m/2024-11-27-11-27-31/
     RDKit          3D

 25 27  0  0  0  0  0  0  0  0999 V2000
  -28.0162   -0.8135   28.8779 C   0  0  0  0  0  0  0  0  0  0  0  0
  -28.4690   -0.7850   29.8287 C   0  0  0  0  0  0  0  0  0  0  0  0
  -27.0871    0.2903   28.6377 C   0  0  0  0  0  0  0  0  0  0  0  0
  -26.8317    1.2487   29.5869 C   0  0  0  0  0  0  0  0  0  0  0  0
  -28.3914    0.0801   31.0065 C   0  0  0  0  0  0  0  0  0  0  0  0
  -27.4940    1.1521   30.7841 C   0  0  0  0  0  0  0  0  0  0  0  0
  -26.2087    0.3944   27.1645 Cl  0  0  0  0  0  0  0  0  0  0  0  0
  -29.5284   -2.2434   30.0739 Cl  0  0  0  0  0  0  0  0  0  0  0  0
  -25.8949    2.3862   29.3378 C   0  0  0  0  0  0  0  0  0  0  0  0
  -25.6306    3.0042   28.3601 C   0  0  0  0  0  0  0  0  0  0  0  0
  -24.5618    3.8909   27.9986 C   0  0  0  0  0  0  0  0  0  0  0  0
  -25.1361    2.8726   30.5599 C   0  0  0  0  0  0  0  0  0  0  0  0
  -25.1380    2.1974   31.6247 N   0  0  0  0  0  0  0  0  0  0  0  0
  -24.6058    4.3994   26.6498 C   0  0  0  0  0  0  0  0  0  0  0  0
  -25.3598    3.7227   25.6696 C   0  0  0  0  0  0  0  0  0  0  0  0
  -26.3680    2.8809   26.0072 C   0  0  0  0  0  0  0  0  0  0  0  0
  -26.4927    2.4633   27.2970 C   0  0  0  0  0  0  0  0  0  0  0  0
  -27.9609    2.6213   27.4352 C   0  0  0  0  0  0  0  0  0  0  0  0
  -28.8351    2.2142   26.6688 N   0  0  0  0  0  0  0  0  0  0  0  0
  -30.1892    2.3219   26.9601 C   0  0  0  0  0  0  0  0  0  0  0  0
  -30.9495    2.3030   26.1888 C   0  0  0  0  0  0  0  0  0  0  0  0
  -30.5271    2.2564   28.4232 C   0  0  0  0  0  0  0  0  0  0  0  0
  -31.8548    2.1800   28.8030 C   0  0  0  0  0  0  0  0  0  0  0  0
  -32.4432    2.2626   26.4739 C   0  0  0  0  0  0  0  0  0  0  0  0
  -32.8206    2.2338   27.8174 C   0  0  0  0  0  0  0  0  0  0  0  0
  3  7  1  0
  2  8  1  0
  4  9  1  0
  9 12  1  0
 12 13  1  0
 17 18  1  0
 18 19  2  3
 19 20  1  0
  9 10  1  0
 20 21  2  0
 21 24  1  0
 24 25  2  0
 25 23  1  0
 23 22  2  0
 22 20  1  0
 10 11  2  0
 11 14  1  0
 14 15  2  0
 15 16  1  0
 16 17  2  0
 17 10  1  0
  1  2  2  0
  2  5  1  0
  5  6  2  0
  6  4  1  0
  4  3  2  0
  3  1  1  0
M  END

$$$$
