No_3942-gen_results/8p0m/2024-11-27-11-27-31/
     RDKit          3D

 25 26  0  0  0  0  0  0  0  0999 V2000
  -28.0162   -0.8135   28.8779 C   0  0  0  0  0  0  0  0  0  0  0  0
  -27.0636   -0.1189   28.6079 C   0  0  0  0  0  0  0  0  0  0  0  0
  -25.7923   -0.4302   29.0761 C   0  0  0  0  0  0  0  0  0  0  0  0
  -24.5456    0.3494   28.8225 C   0  0  0  0  0  0  0  0  0  0  0  0
  -23.2409    0.0217   29.3323 C   0  0  0  0  0  0  0  0  0  0  0  0
  -27.8820   -1.8995   29.8633 C   0  0  0  0  0  0  0  0  0  0  0  0
  -26.6526   -2.3142   30.3138 C   0  0  0  0  0  0  0  0  0  0  0  0
  -25.5153   -1.5607   29.9787 C   0  0  0  0  0  0  0  0  0  0  0  0
  -22.1645    0.7936   28.9524 C   0  0  0  0  0  0  0  0  0  0  0  0
  -22.1241    1.7484   27.9889 C   0  0  0  0  0  0  0  0  0  0  0  0
  -24.5235    1.3782   27.7946 C   0  0  0  0  0  0  0  0  0  0  0  0
  -23.3387    2.0417   27.4305 C   0  0  0  0  0  0  0  0  0  0  0  0
  -28.9603   -2.6577   30.2382 O   0  0  0  0  0  0  0  0  0  0  0  0
  -30.0989   -2.0886   30.6129 C   0  0  0  0  0  0  0  0  0  0  0  0
  -30.6084   -2.7153   31.7527 C   0  0  0  0  0  0  0  0  0  0  0  0
  -30.1292   -3.6042   32.3000 O   0  0  0  0  0  0  0  0  0  0  0  0
  -31.8452   -2.2234   32.2624 N   0  0  0  0  0  0  0  0  0  0  0  0
  -32.5244   -1.1031   31.7494 C   0  0  0  0  0  0  0  0  0  0  0  0
  -32.4037   -0.0563   32.0670 C   0  0  0  0  0  0  0  0  0  0  0  0
  -31.9162    0.3422   33.4230 C   0  0  0  0  0  0  0  0  0  0  0  0
  -31.0317    0.7151   33.7175 C   0  0  0  0  0  0  0  0  0  0  0  0
  -30.2208    1.6457   32.7868 C   0  0  0  0  0  0  0  0  0  0  0  0
  -28.9588    2.1954   33.0958 C   0  0  0  0  0  0  0  0  0  0  0  0
  -30.6543    1.7972   31.4463 C   0  0  0  0  0  0  0  0  0  0  0  0
  -30.0051    2.6359   30.5361 C   0  0  0  0  0  0  0  0  0  0  0  0
  3  4  1  0
  6 13  1  0
 13 14  1  0
 14 15  1  0
 15 16  2  0
 15 17  1  0
 17 18  1  0
 18 19  2  3
 19 20  1  0
 20 21  2  3
 21 22  1  0
 22 23  2  0
 22 24  1  0
 24 25  1  0
  1  2  2  0
  2  3  1  0
  3  8  2  0
  8  7  1  0
  7  6  2  0
  6  1  1  0
  4  5  2  0
  5  9  1  0
  9 10  2  0
 10 12  1  0
 12 11  2  0
 11  4  1  0
M  END

$$$$
