No_3781-gen_results/8p0m/2024-11-27-11-27-31/
     RDKit          3D

 24 26  0  0  0  0  0  0  0  0999 V2000
  -28.0162   -0.8135   28.8779 C   0  0  0  0  0  0  0  0  0  0  0  0
  -27.0636   -0.1189   28.6079 C   0  0  0  0  0  0  0  0  0  0  0  0
  -25.7647   -0.3897   29.0360 C   0  0  0  0  0  0  0  0  0  0  0  0
  -25.5296   -1.5302   29.9014 C   0  0  0  0  0  0  0  0  0  0  0  0
  -26.6888   -2.2893   30.1810 C   0  0  0  0  0  0  0  0  0  0  0  0
  -27.8727   -1.9508   29.7373 C   0  0  0  0  0  0  0  0  0  0  0  0
  -24.5491    0.4100   28.7341 C   0  0  0  0  0  0  0  0  0  0  0  0
  -24.4789    1.1871   27.6843 C   0  0  0  0  0  0  0  0  0  0  0  0
  -23.2830    1.8356   27.3522 C   0  0  0  0  0  0  0  0  0  0  0  0
  -22.1028    1.6619   28.0350 C   0  0  0  0  0  0  0  0  0  0  0  0
  -23.3238    0.1535   29.4730 C   0  0  0  0  0  0  0  0  0  0  0  0
  -22.1169    0.8126   29.1066 C   0  0  0  0  0  0  0  0  0  0  0  0
  -29.0389   -2.7867   30.1573 C   0  0  0  0  0  0  0  0  0  0  0  0
  -30.1027   -2.4221   30.0205 O   0  0  0  0  0  0  0  0  0  0  0  0
  -28.7692   -3.9715   30.6512 O   0  0  0  0  0  0  0  0  0  0  0  0
  -23.3075    2.9433   25.9878 Cl  0  0  0  0  0  0  0  0  0  0  0  0
  -27.1626    0.9243   27.7554 O   0  0  0  0  0  0  0  0  0  0  0  0
  -27.6030    2.1108   28.2737 C   0  0  0  0  0  0  0  0  0  0  0  0
  -27.6894    3.1161   27.3193 C   0  0  0  0  0  0  0  0  0  0  0  0
  -27.5254    2.9467   26.0628 C   0  0  0  0  0  0  0  0  0  0  0  0
  -27.8086    4.4962   27.8773 C   0  0  0  0  0  0  0  0  0  0  0  0
  -27.9503    5.5859   26.9862 C   0  0  0  0  0  0  0  0  0  0  0  0
  -27.7525    4.0823   25.1164 C   0  0  0  0  0  0  0  0  0  0  0  0
  -27.9272    5.3567   25.6150 C   0  0  0  0  0  0  0  0  0  0  0  0
  3  7  1  0
  6 13  1  0
 13 14  2  0
 13 15  1  0
  9 16  1  0
  2 17  1  0
 17 18  1  0
 18 19  1  0
  7  8  2  0
  8  9  1  0
  9 10  2  0
 10 12  1  0
 12 11  2  0
 11  7  1  0
  1  2  2  0
  2  3  1  0
  3  4  2  0
  4  5  1  0
  5  6  2  0
  6  1  1  0
 19 20  2  0
 20 23  1  0
 23 24  2  0
 24 22  1  0
 22 21  2  0
 21 19  1  0
M  END

$$$$
