No_3207-gen_results/8p0m/2024-11-27-11-27-31/
     RDKit          3D

 19 20  0  0  0  0  0  0  0  0999 V2000
  -28.0162   -0.8135   28.8779 C   0  0  0  0  0  0  0  0  0  0  0  0
  -28.4690   -0.7850   29.8287 C   0  0  0  0  0  0  0  0  0  0  0  0
  -28.1960    0.3478   28.0550 C   0  0  0  0  0  0  0  0  0  0  0  0
  -29.0191    1.3501   28.3782 C   0  0  0  0  0  0  0  0  0  0  0  0
  -29.4107    0.1803   30.3782 C   0  0  0  0  0  0  0  0  0  0  0  0
  -29.6059    1.2495   29.6193 C   0  0  0  0  0  0  0  0  0  0  0  0
  -27.4597    0.3802   26.7091 C   0  0  0  0  0  0  0  0  0  0  0  0
  -26.0094    0.3317   26.7236 C   0  0  0  0  0  0  0  0  0  0  0  0
  -25.3055    0.0239   27.8527 C   0  0  0  0  0  0  0  0  0  0  0  0
  -23.9153    0.1563   27.8949 C   0  0  0  0  0  0  0  0  0  0  0  0
  -23.1483   -0.2523   29.0524 C   0  0  0  0  0  0  0  0  0  0  0  0
  -21.7767    0.0855   29.0711 C   0  0  0  0  0  0  0  0  0  0  0  0
  -21.2092    0.9417   28.1344 C   0  0  0  0  0  0  0  0  0  0  0  0
  -22.0487    1.5860   27.1995 C   0  0  0  0  0  0  0  0  0  0  0  0
  -23.3462    1.2635   27.1439 C   0  0  0  0  0  0  0  0  0  0  0  0
  -28.2183    0.3645   25.5714 C   0  0  0  0  0  0  0  0  0  0  0  0
  -25.4247    0.6496   25.4571 C   0  0  0  0  0  0  0  0  0  0  0  0
  -27.7438    0.7480   24.6539 F   0  0  0  0  0  0  0  0  0  0  0  0
  -29.3879    0.9993   25.8906 F   0  0  0  0  0  0  0  0  0  0  0  0
  3  7  1  0
  7  8  1  0
  8  9  1  0
  7 16  1  0
  8 17  1  0
 16 18  1  0
 16 19  1  0
  9 10  1  0
  1  2  2  0
  2  5  1  0
  5  6  2  0
  6  4  1  0
  4  3  2  0
  3  1  1  0
 10 11  2  0
 11 12  1  0
 12 13  2  0
 13 14  1  0
 14 15  2  0
 15 10  1  0
M  END

$$$$
