No_3884-gen_results/8p0m/2024-11-27-11-27-31/
     RDKit          3D

 17 19  0  0  0  0  0  0  0  0999 V2000
  -28.0162   -0.8135   28.8779 C   0  0  0  0  0  0  0  0  0  0  0  0
  -28.4690   -0.7850   29.8287 C   0  0  0  0  0  0  0  0  0  0  0  0
  -27.0871    0.2903   28.6377 C   0  0  0  0  0  0  0  0  0  0  0  0
  -26.8317    1.2487   29.5869 C   0  0  0  0  0  0  0  0  0  0  0  0
  -28.3914    0.0801   31.0065 C   0  0  0  0  0  0  0  0  0  0  0  0
  -27.4940    1.1521   30.7841 C   0  0  0  0  0  0  0  0  0  0  0  0
  -26.3172    0.3994   27.3653 C   0  0  0  0  0  0  0  0  0  0  0  0
  -25.0720    0.1570   27.4305 N   0  0  0  0  0  0  0  0  0  0  0  0
  -26.8956    0.6467   26.2390 N   0  0  0  0  0  0  0  0  0  0  0  0
  -25.8459    0.5095   25.3244 C   0  0  0  0  0  0  0  0  0  0  0  0
  -24.6901    0.2884   26.0341 C   0  0  0  0  0  0  0  0  0  0  0  0
  -24.1434   -0.0956   28.4170 C   0  0  0  0  0  0  0  0  0  0  0  0
  -24.1358   -1.3304   29.1214 C   0  0  0  0  0  0  0  0  0  0  0  0
  -22.9710    0.7572   28.5085 C   0  0  0  0  0  0  0  0  0  0  0  0
  -21.9198    0.3866   29.4006 C   0  0  0  0  0  0  0  0  0  0  0  0
  -23.1321   -1.5927   30.0594 C   0  0  0  0  0  0  0  0  0  0  0  0
  -22.0444   -0.7167   30.1829 C   0  0  0  0  0  0  0  0  0  0  0  0
  3  7  1  0
  7  8  1  0
  7  9  2  0
  9 10  1  0
  8 11  1  0
 10 11  2  0
  8 12  1  0
  1  2  2  0
  2  5  1  0
  5  6  2  0
  6  4  1  0
  4  3  2  0
  3  1  1  0
 12 13  2  0
 13 16  1  0
 16 17  2  0
 17 15  1  0
 15 14  2  0
 14 12  1  0
M  END

$$$$
