No_3107-gen_results/8p0m/2024-11-27-11-27-31/
     RDKit          3D

 16 17  0  0  0  0  0  0  0  0999 V2000
  -28.1229   -1.3353   28.4874 O   0  0  0  0  0  0  0  0  0  0  0  0
  -27.0637   -0.8242   28.8687 C   0  0  0  0  0  0  0  0  0  0  0  0
  -26.9592    0.0926   29.7582 C   0  0  0  0  0  0  0  0  0  0  0  0
  -25.8472   -1.5491   28.6589 N   0  0  0  0  0  0  0  0  0  0  0  0
  -25.7222    0.7177   30.1925 C   0  0  0  0  0  0  0  0  0  0  0  0
  -24.5852   -1.0823   29.0632 C   0  0  0  0  0  0  0  0  0  0  0  0
  -24.5116    0.0344   29.8223 C   0  0  0  0  0  0  0  0  0  0  0  0
  -23.3646    0.4849   30.2019 F   0  0  0  0  0  0  0  0  0  0  0  0
  -28.1980    0.8859   30.1090 C   0  0  0  0  0  0  0  0  0  0  0  0
  -28.6734    1.7322   29.3137 N   0  0  0  0  0  0  0  0  0  0  0  0
  -27.9848    2.3727   28.5577 C   0  0  0  0  0  0  0  0  0  0  0  0
  -28.6316    3.3810   27.6164 C   0  0  0  0  0  0  0  0  0  0  0  0
  -30.0950    1.8796   29.3102 C   0  0  0  0  0  0  0  0  0  0  0  0
  -30.7374    2.7956   28.4355 C   0  0  0  0  0  0  0  0  0  0  0  0
  -29.9452    3.6040   27.6394 C   0  0  0  0  0  0  0  0  0  0  0  0
  -28.6699    0.4760   31.2256 O   0  0  0  0  0  0  0  0  0  0  0  0
  1  2  2  0
  2  3  1  0
  2  4  1  0
  4  6  1  0
  5  7  1  0
  6  7  1  0
  7  8  1  0
  3  9  1  0
  9 10  1  0
 10 11  1  0
 10 13  1  0
 12 15  1  0
 14 15  1  0
  9 16  2  0
 11 12  1  0
 14 13  1  0
  3  5  1  0
M  END

$$$$
