No_396-gen_results/8p0m/2024-11-27-11-27-31/
     RDKit          3D

 24 25  0  0  0  0  0  0  0  0999 V2000
  -28.0727   -1.2542   28.5316 F   0  0  0  0  0  0  0  0  0  0  0  0
  -28.2662   -0.4214   29.1931 C   0  0  0  0  0  0  0  0  0  0  0  0
  -29.4445    0.0759   29.3394 C   0  0  0  0  0  0  0  0  0  0  0  0
  -29.7073    1.1743   30.2277 C   0  0  0  0  0  0  0  0  0  0  0  0
  -28.5970    1.7109   30.9110 C   0  0  0  0  0  0  0  0  0  0  0  0
  -27.3024    1.1821   30.7905 C   0  0  0  0  0  0  0  0  0  0  0  0
  -27.1217    0.1218   29.9802 C   0  0  0  0  0  0  0  0  0  0  0  0
  -25.9582   -0.4045   29.8317 F   0  0  0  0  0  0  0  0  0  0  0  0
  -31.0370    1.7460   30.3754 C   0  0  0  0  0  0  0  0  0  0  0  0
  -31.3310    2.7306   30.7748 O   0  0  0  0  0  0  0  0  0  0  0  0
  -31.9505    0.7514   30.2369 O   0  0  0  0  0  0  0  0  0  0  0  0
  -26.1768    1.7653   31.5610 C   0  0  0  0  0  0  0  0  0  0  0  0
  -24.9759    1.8171   31.0647 C   0  0  0  0  0  0  0  0  0  0  0  0
  -26.4939    2.3339   32.8743 C   0  0  0  0  0  0  0  0  0  0  0  0
  -24.2582    3.0110   30.8665 C   0  0  0  0  0  0  0  0  0  0  0  0
  -23.1325    2.9254   29.5679 Br  0  0  0  0  0  0  0  0  0  0  0  0
  -26.4049    3.7323   32.9315 C   0  0  0  0  0  0  0  0  0  0  0  0
  -26.4424    4.1202   34.3267 C   0  0  0  0  0  0  0  0  0  0  0  0
  -25.9728    5.3845   34.6351 N   0  0  0  0  0  0  0  0  0  0  0  0
  -26.4070    6.4193   33.9422 C   0  0  0  0  0  0  0  0  0  0  0  0
  -26.3447    6.1652   32.4603 C   0  0  0  0  0  0  0  0  0  0  0  0
  -26.3757    4.7840   32.0139 C   0  0  0  0  0  0  0  0  0  0  0  0
  -26.3522    7.2089   31.4966 C   0  0  0  0  0  0  0  0  0  0  0  0
  -25.6440    8.0323   31.4658 O   0  0  0  0  0  0  0  0  0  0  0  0
  1  2  1  0
  7  8  1  0
  4  9  1  0
  9 10  2  0
  9 11  1  0
  6 12  1  0
 12 13  1  0
 12 14  1  0
 13 15  1  0
 15 16  1  0
 14 17  1  0
 17 18  1  0
 18 19  1  0
 19 20  1  0
 20 21  1  0
 17 22  1  0
 21 22  1  0
 21 23  1  0
 23 24  2  0
  2  3  2  0
  3  4  1  0
  4  5  2  0
  5  6  1  0
  6  7  2  0
  7  2  1  0
M  END

$$$$
