No_3151-gen_results/8p0m/2024-11-27-11-27-31/
     RDKit          3D

 14 15  0  0  0  0  0  0  0  0999 V2000
  -28.0162   -0.8135   28.8779 C   0  0  0  0  0  0  0  0  0  0  0  0
  -27.0636   -0.1189   28.6079 C   0  0  0  0  0  0  0  0  0  0  0  0
  -26.9716    0.7139   27.5060 C   0  0  0  0  0  0  0  0  0  0  0  0
  -25.8205    1.4909   27.1160 C   0  0  0  0  0  0  0  0  0  0  0  0
  -24.6562    1.4242   27.9180 C   0  0  0  0  0  0  0  0  0  0  0  0
  -23.4598    2.1165   27.6160 C   0  0  0  0  0  0  0  0  0  0  0  0
  -22.3627    1.9155   28.4482 C   0  0  0  0  0  0  0  0  0  0  0  0
  -22.2877    0.6547   28.9758 C   0  0  0  0  0  0  0  0  0  0  0  0
  -23.3667   -0.2073   29.2328 C   0  0  0  0  0  0  0  0  0  0  0  0
  -24.5647    0.1400   28.6327 C   0  0  0  0  0  0  0  0  0  0  0  0
  -25.7053   -0.4323   29.1614 C   0  0  0  0  0  0  0  0  0  0  0  0
  -29.1891   -0.1259   29.0257 N   0  0  0  0  0  0  0  0  0  0  0  0
  -30.2935   -0.6667   29.5712 C   0  0  0  0  0  0  0  0  0  0  0  0
  -31.5692   -0.1464   29.1663 C   0  0  0  0  0  0  0  0  0  0  0  0
  1  2  2  3
  2  3  1  0
  3  4  1  0
  4  5  1  0
  2 11  1  0
 10 11  1  0
  1 12  1  0
 12 13  1  0
 13 14  2  0
  5  6  2  0
  6  7  1  0
  7  8  2  0
  8  9  1  0
  9 10  2  0
 10  5  1  0
M  END

$$$$
