No_3771-gen_results/8p0m/2024-11-27-11-27-31/
     RDKit          3D

 20 21  0  0  0  0  0  0  0  0999 V2000
  -28.0162   -0.8135   28.8779 C   0  0  0  0  0  0  0  0  0  0  0  0
  -27.0636   -0.1190   28.6079 C   0  0  0  0  0  0  0  0  0  0  0  0
  -26.9287    1.1713   29.0083 C   0  0  0  0  0  0  0  0  0  0  0  0
  -25.7702    2.0341   28.6884 C   0  0  0  0  0  0  0  0  0  0  0  0
  -24.7141    1.4431   27.9188 C   0  0  0  0  0  0  0  0  0  0  0  0
  -24.8590    0.0783   27.5836 C   0  0  0  0  0  0  0  0  0  0  0  0
  -25.9647   -0.6606   27.9164 C   0  0  0  0  0  0  0  0  0  0  0  0
  -27.9821   -1.6367   30.0748 N   0  0  0  0  0  0  0  0  0  0  0  0
  -29.1980   -0.3513   28.7460 F   0  0  0  0  0  0  0  0  0  0  0  0
  -23.5413    2.1424   27.5557 C   0  0  0  0  0  0  0  0  0  0  0  0
  -22.6410    1.6666   27.2742 F   0  0  0  0  0  0  0  0  0  0  0  0
  -23.7695    3.4151   27.3635 F   0  0  0  0  0  0  0  0  0  0  0  0
  -26.8093   -2.1813   30.4816 C   0  0  0  0  0  0  0  0  0  0  0  0
  -29.1338   -2.2367   30.6732 C   0  0  0  0  0  0  0  0  0  0  0  0
  -29.9696   -3.0224   29.9625 C   0  0  0  0  0  0  0  0  0  0  0  0
  -31.1770   -3.1922   30.2278 C   0  0  0  0  0  0  0  0  0  0  0  0
  -31.9708   -4.0382   29.3980 C   0  0  0  0  0  0  0  0  0  0  0  0
  -31.3287   -4.9503   28.5324 C   0  0  0  0  0  0  0  0  0  0  0  0
  -29.9378   -5.0271   28.5628 C   0  0  0  0  0  0  0  0  0  0  0  0
  -29.2050   -4.1009   29.2752 C   0  0  0  0  0  0  0  0  0  0  0  0
  1  2  1  0
  1  8  1  0
  1  9  1  0
  5 10  1  0
 10 11  1  0
 10 12  1  0
  8 13  1  0
  8 14  1  0
 14 15  1  0
 15 16  2  0
 16 17  1  0
 17 18  2  0
 18 19  1  0
 19 20  2  0
 20 15  1  0
  2  3  2  0
  3  4  1  0
  4  5  2  0
  5  6  1  0
  6  7  2  0
  7  2  1  0
M  END

$$$$
