No_3366-gen_results/8p0m/2024-11-27-11-27-31/
     RDKit          3D

 10 10  0  0  0  0  0  0  0  0999 V2000
  -28.0727   -1.2542   28.5316 F   0  0  0  0  0  0  0  0  0  0  0  0
  -27.0607   -0.6291   28.8721 C   0  0  0  0  0  0  0  0  0  0  0  0
  -27.1759    0.6153   29.3693 C   0  0  0  0  0  0  0  0  0  0  0  0
  -25.7305   -1.2692   28.7241 C   0  0  0  0  0  0  0  0  0  0  0  0
  -24.5526   -0.5078   29.0132 C   0  0  0  0  0  0  0  0  0  0  0  0
  -25.9465    1.3753   29.6814 C   0  0  0  0  0  0  0  0  0  0  0  0
  -24.6746    0.8198   29.5066 C   0  0  0  0  0  0  0  0  0  0  0  0
  -23.2567    1.6975   29.8111 S   0  0  0  0  0  0  0  0  0  0  0  0
  -22.7672    2.6046   28.9941 O   0  0  0  0  0  0  0  0  0  0  0  0
  -23.6269    2.3994   31.1635 O   0  0  0  0  0  0  0  0  0  0  0  0
  1  2  1  0
  7  8  1  0
  8  9  2  0
  8 10  2  0
  2  3  2  0
  3  6  1  0
  6  7  2  0
  7  5  1  0
  5  4  2  0
  4  2  1  0
M  END

$$$$
