No_3404-gen_results/8p0m/2024-11-27-11-27-31/
     RDKit          3D

 18 19  0  0  0  0  0  0  0  0999 V2000
  -28.0162   -0.8135   28.8779 C   0  0  0  0  0  0  0  0  0  0  0  0
  -28.4690   -0.7850   29.8287 C   0  0  0  0  0  0  0  0  0  0  0  0
  -26.5455   -0.8762   28.8500 C   0  0  0  0  0  0  0  0  0  0  0  0
  -25.8041   -1.0324   30.0571 C   0  0  0  0  0  0  0  0  0  0  0  0
  -26.5373   -1.0386   31.2171 C   0  0  0  0  0  0  0  0  0  0  0  0
  -27.8843   -0.9532   31.1862 C   0  0  0  0  0  0  0  0  0  0  0  0
  -24.3655   -1.1134   30.0483 C   0  0  0  0  0  0  0  0  0  0  0  0
  -23.6925    0.1188   29.9185 C   0  0  0  0  0  0  0  0  0  0  0  0
  -23.9863    1.2743   30.4522 C   0  0  0  0  0  0  0  0  0  0  0  0
  -23.3983    2.4978   30.0514 C   0  0  0  0  0  0  0  0  0  0  0  0
  -23.3178    2.5075   28.7042 C   0  0  0  0  0  0  0  0  0  0  0  0
  -23.4478    0.4786   28.3518 C   0  0  0  0  0  0  0  0  0  0  0  0
  -22.9575    1.5485   27.9976 C   0  0  0  0  0  0  0  0  0  0  0  0
  -25.8492   -0.8391   27.7075 F   0  0  0  0  0  0  0  0  0  0  0  0
  -22.5914    1.7541   26.6991 O   0  0  0  0  0  0  0  0  0  0  0  0
  -30.0726   -0.7120   29.8818 C   0  0  0  0  0  0  0  0  0  0  0  0
  -30.6636    0.1008   30.6846 O   0  0  0  0  0  0  0  0  0  0  0  0
  -30.6590   -1.1020   28.8469 O   0  0  0  0  0  0  0  0  0  0  0  0
  4  7  1  0
  7  8  1  0
  9 10  1  0
  8 12  1  0
 11 13  1  0
 12 13  1  0
  3 14  1  0
 13 15  2  0
  2 16  1  0
 16 17  2  0
 16 18  1  0
 11 10  1  0
  9  8  1  0
  1  2  2  0
  2  6  1  0
  6  5  2  0
  5  4  1  0
  4  3  2  0
  3  1  1  0
M  END

$$$$
