No_3868-gen_results/8p0m/2024-11-27-11-27-31/
     RDKit          3D

 17 18  0  0  0  0  0  0  0  0999 V2000
  -28.0162   -0.8135   28.8779 C   0  0  0  0  0  0  0  0  0  0  0  0
  -28.4690   -0.7850   29.8287 C   0  0  0  0  0  0  0  0  0  0  0  0
  -26.5455   -0.8762   28.8500 C   0  0  0  0  0  0  0  0  0  0  0  0
  -25.8041   -1.0324   30.0571 C   0  0  0  0  0  0  0  0  0  0  0  0
  -26.5373   -1.0386   31.2171 C   0  0  0  0  0  0  0  0  0  0  0  0
  -27.8843   -0.9532   31.1862 C   0  0  0  0  0  0  0  0  0  0  0  0
  -24.3555   -1.1121   30.0346 C   0  0  0  0  0  0  0  0  0  0  0  0
  -23.6610    0.1027   29.8448 C   0  0  0  0  0  0  0  0  0  0  0  0
  -23.2716    0.5565   28.6955 C   0  0  0  0  0  0  0  0  0  0  0  0
  -23.0523    1.8961   28.3271 C   0  0  0  0  0  0  0  0  0  0  0  0
  -24.0312    2.3356   27.5354 C   0  0  0  0  0  0  0  0  0  0  0  0
  -24.4581    3.6892   27.5517 C   0  0  0  0  0  0  0  0  0  0  0  0
  -24.5143    1.5901   26.4162 C   0  0  0  0  0  0  0  0  0  0  0  0
  -25.4773    4.1769   26.7468 C   0  0  0  0  0  0  0  0  0  0  0  0
  -25.5158    2.0142   25.6248 C   0  0  0  0  0  0  0  0  0  0  0  0
  -25.9833    3.3440   25.7488 C   0  0  0  0  0  0  0  0  0  0  0  0
  -25.8232   -0.8851   27.6875 O   0  0  0  0  0  0  0  0  0  0  0  0
  1  3  1  0
  3  4  1  0
  4  5  1  0
  2  6  1  0
  5  6  1  0
  4  7  1  0
  7  8  1  0
  8  9  1  0
  9 10  2  3
 10 11  1  0
  3 17  2  0
  1  2  1  0
 11 12  2  0
 12 14  1  0
 14 16  2  0
 16 15  1  0
 15 13  2  0
 13 11  1  0
M  END

$$$$
