No_3962-gen_results/8p0m/2024-11-27-11-27-31/
     RDKit          3D

 14 14  0  0  0  0  0  0  0  0999 V2000
  -28.0162   -0.8135   28.8779 C   0  0  0  0  0  0  0  0  0  0  0  0
  -28.4690   -0.7850   29.8287 C   0  0  0  0  0  0  0  0  0  0  0  0
  -28.1960    0.3478   28.0550 C   0  0  0  0  0  0  0  0  0  0  0  0
  -29.0191    1.3501   28.3782 C   0  0  0  0  0  0  0  0  0  0  0  0
  -29.4107    0.1803   30.3782 C   0  0  0  0  0  0  0  0  0  0  0  0
  -29.6059    1.2495   29.6193 C   0  0  0  0  0  0  0  0  0  0  0  0
  -27.4597    0.3802   26.7091 C   0  0  0  0  0  0  0  0  0  0  0  0
  -28.1604    0.0466   25.8046 F   0  0  0  0  0  0  0  0  0  0  0  0
  -26.9244    1.6642   26.4653 F   0  0  0  0  0  0  0  0  0  0  0  0
  -26.2459   -0.3364   26.7691 F   0  0  0  0  0  0  0  0  0  0  0  0
  -30.4530    2.2449   29.9941 O   0  0  0  0  0  0  0  0  0  0  0  0
  -31.3111    2.6919   29.4518 C   0  0  0  0  0  0  0  0  0  0  0  0
  -31.7764    2.7627   28.4455 C   0  0  0  0  0  0  0  0  0  0  0  0
  -32.8978    3.4814   27.8622 C   0  0  0  0  0  0  0  0  0  0  0  0
  3  7  1  0
  7  8  1  0
  7  9  1  0
  7 10  1  0
  6 11  1  0
 11 12  1  0
 12 13  2  3
 13 14  1  0
  1  2  2  0
  2  5  1  0
  5  6  2  0
  6  4  1  0
  4  3  2  0
  3  1  1  0
M  END

$$$$
