No_3446-gen_results/8p0m/2024-11-27-11-27-31/
     RDKit          3D

 19 21  0  0  0  0  0  0  0  0999 V2000
  -28.0162   -0.8135   28.8779 C   0  0  0  0  0  0  0  0  0  0  0  0
  -28.4690   -0.7850   29.8287 C   0  0  0  0  0  0  0  0  0  0  0  0
  -26.5455   -0.8762   28.8500 C   0  0  0  0  0  0  0  0  0  0  0  0
  -25.8041   -1.0324   30.0571 C   0  0  0  0  0  0  0  0  0  0  0  0
  -26.5373   -1.0386   31.2171 C   0  0  0  0  0  0  0  0  0  0  0  0
  -27.8843   -0.9532   31.1862 C   0  0  0  0  0  0  0  0  0  0  0  0
  -24.3655   -1.1134   30.0483 C   0  0  0  0  0  0  0  0  0  0  0  0
  -23.6254   -0.9435   29.0230 C   0  0  0  0  0  0  0  0  0  0  0  0
  -22.3775   -0.3348   29.0683 C   0  0  0  0  0  0  0  0  0  0  0  0
  -21.6875    0.0953   27.9336 C   0  0  0  0  0  0  0  0  0  0  0  0
  -22.4753    1.0139   27.1299 C   0  0  0  0  0  0  0  0  0  0  0  0
  -23.8855    0.8307   27.0545 C   0  0  0  0  0  0  0  0  0  0  0  0
  -24.5481    0.3376   28.2586 C   0  0  0  0  0  0  0  0  0  0  0  0
  -25.7984   -0.3373   27.8037 N   0  0  0  0  0  0  0  0  0  0  0  0
  -26.3678   -0.3928   26.5069 C   0  0  0  0  0  0  0  0  0  0  0  0
  -24.7457    1.5966   29.1105 C   0  0  0  0  0  0  0  0  0  0  0  0
  -25.5010    2.6188   28.5928 C   0  0  0  0  0  0  0  0  0  0  0  0
  -25.8124    3.7136   29.4361 C   0  0  0  0  0  0  0  0  0  0  0  0
  -25.4998    3.5666   30.7593 N   0  0  0  0  0  0  0  0  0  0  0  0
  4  7  1  0
  8  9  1  0
  9 10  1  0
 10 11  1  0
  8 13  1  0
 12 13  1  0
  3 14  1  0
 13 14  1  0
 14 15  1  0
 13 16  1  0
 16 17  2  3
 17 18  1  0
 18 19  2  0
  7  8  1  0
 11 12  1  0
  1  2  2  0
  2  6  1  0
  6  5  2  0
  5  4  1  0
  4  3  2  0
  3  1  1  0
M  END

$$$$
