No_3250-gen_results/8p0m/2024-11-27-11-27-31/
     RDKit          3D

 16 18  0  0  0  0  0  0  0  0999 V2000
  -28.0162   -0.8135   28.8779 C   0  0  0  0  0  0  0  0  0  0  0  0
  -28.4690   -0.7850   29.8287 C   0  0  0  0  0  0  0  0  0  0  0  0
  -28.1816    0.4277   28.1134 C   0  0  0  0  0  0  0  0  0  0  0  0
  -27.4498    0.6435   26.8500 C   0  0  0  0  0  0  0  0  0  0  0  0
  -27.8596    1.4573   25.9076 C   0  0  0  0  0  0  0  0  0  0  0  0
  -29.4263    0.1097   30.4178 C   0  0  0  0  0  0  0  0  0  0  0  0
  -29.6233    1.2198   29.7351 C   0  0  0  0  0  0  0  0  0  0  0  0
  -28.9609    1.4529   28.5513 C   0  0  0  0  0  0  0  0  0  0  0  0
  -27.1733    1.5743   24.7028 C   0  0  0  0  0  0  0  0  0  0  0  0
  -26.0892    0.7468   24.4126 C   0  0  0  0  0  0  0  0  0  0  0  0
  -25.6365   -0.1191   25.3972 C   0  0  0  0  0  0  0  0  0  0  0  0
  -26.2808   -0.2063   26.5817 C   0  0  0  0  0  0  0  0  0  0  0  0
  -30.5459    2.3200   30.2418 C   0  0  0  0  0  0  0  0  0  0  0  0
  -31.0919    3.0735   29.5265 C   0  0  0  0  0  0  0  0  0  0  0  0
  -30.5770    3.3715   28.2755 C   0  0  0  0  0  0  0  0  0  0  0  0
  -29.4707    2.4894   27.6977 C   0  0  0  0  0  0  0  0  0  0  0  0
  3  4  1  0
  8 16  1  0
 16 15  2  0
 15 14  1  0
 14 13  2  0
 13  7  1  0
  4  5  2  0
  5  9  1  0
  9 10  2  0
 10 11  1  0
 11 12  2  0
 12  4  1  0
  1  2  2  0
  2  6  1  0
  6  7  2  0
  7  8  1  0
  8  3  2  0
  3  1  1  0
M  END

$$$$
