No_3972-gen_results/8p0m/2024-11-27-11-27-31/
     RDKit          3D

 24 26  0  0  0  0  0  0  0  0999 V2000
  -28.0162   -0.8135   28.8779 C   0  0  0  0  0  0  0  0  0  0  0  0
  -28.4690   -0.7850   29.8287 C   0  0  0  0  0  0  0  0  0  0  0  0
  -26.5455   -0.8762   28.8500 C   0  0  0  0  0  0  0  0  0  0  0  0
  -25.8041   -1.0324   30.0571 C   0  0  0  0  0  0  0  0  0  0  0  0
  -26.5373   -1.0386   31.2171 C   0  0  0  0  0  0  0  0  0  0  0  0
  -27.8843   -0.9532   31.1862 C   0  0  0  0  0  0  0  0  0  0  0  0
  -24.1391   -1.1177   30.0459 Cl  0  0  0  0  0  0  0  0  0  0  0  0
  -29.9178   -0.7207   29.8917 F   0  0  0  0  0  0  0  0  0  0  0  0
  -25.4553   -0.8124   27.2625 Br  0  0  0  0  0  0  0  0  0  0  0  0
  -28.6750   -0.9877   32.4716 C   0  0  0  0  0  0  0  0  0  0  0  0
  -28.1555   -0.3093   33.4452 N   0  0  0  0  0  0  0  0  0  0  0  0
  -28.1044   -0.7761   34.6411 C   0  0  0  0  0  0  0  0  0  0  0  0
  -28.5178   -1.9231   34.9854 C   0  0  0  0  0  0  0  0  0  0  0  0
  -29.3434   -2.6216   34.0581 C   0  0  0  0  0  0  0  0  0  0  0  0
  -29.4133   -2.1783   32.6703 C   0  0  0  0  0  0  0  0  0  0  0  0
  -27.5654    1.0147   33.1363 C   0  0  0  0  0  0  0  0  0  0  0  0
  -28.3324    2.0841   33.5444 C   0  0  0  0  0  0  0  0  0  0  0  0
  -27.9391    3.2936   33.2120 C   0  0  0  0  0  0  0  0  0  0  0  0
  -27.3720    3.5789   32.3632 C   0  0  0  0  0  0  0  0  0  0  0  0
  -26.4809    2.5789   31.6903 C   0  0  0  0  0  0  0  0  0  0  0  0
  -26.7193    1.2632   32.0885 C   0  0  0  0  0  0  0  0  0  0  0  0
  -25.5047    2.9421   30.6306 C   0  0  0  0  0  0  0  0  0  0  0  0
  -25.3070    4.0346   30.2888 O   0  0  0  0  0  0  0  0  0  0  0  0
  -25.1294    1.8813   29.8340 O   0  0  0  0  0  0  0  0  0  0  0  0
  4  7  1  0
  2  8  1  0
  3  9  1  0
  6 10  1  0
 10 11  1  0
 11 12  1  0
 13 14  1  0
 10 15  1  0
 11 16  1  0
 20 22  1  0
 22 23  2  0
 22 24  1  0
 15 14  1  0
 13 12  1  0
  1  2  2  0
  2  6  1  0
  6  5  2  0
  5  4  1  0
  4  3  2  0
  3  1  1  0
 16 17  2  0
 17 18  1  0
 18 19  2  0
 19 20  1  0
 20 21  2  0
 21 16  1  0
M  END

$$$$
