No_3642-gen_results/8p0m/2024-11-27-11-27-31/
     RDKit          3D

 18 19  0  0  0  0  0  0  0  0999 V2000
  -28.0162   -0.8135   28.8779 C   0  0  0  0  0  0  0  0  0  0  0  0
  -28.4690   -0.7850   29.8287 C   0  0  0  0  0  0  0  0  0  0  0  0
  -27.1356    0.2359   28.5352 C   0  0  0  0  0  0  0  0  0  0  0  0
  -26.8745    1.2825   29.3982 C   0  0  0  0  0  0  0  0  0  0  0  0
  -28.3613    0.1987   30.9244 C   0  0  0  0  0  0  0  0  0  0  0  0
  -27.5277    1.2234   30.6356 C   0  0  0  0  0  0  0  0  0  0  0  0
  -26.3879    0.2914   27.2334 C   0  0  0  0  0  0  0  0  0  0  0  0
  -25.4248    1.2427   26.7701 Cl  0  0  0  0  0  0  0  0  0  0  0  0
  -27.4824    0.0563   26.1309 C   0  0  0  0  0  0  0  0  0  0  0  0
  -28.7215    0.5274   26.3310 C   0  0  0  0  0  0  0  0  0  0  0  0
  -29.6158    0.3487   25.2089 C   0  0  0  0  0  0  0  0  0  0  0  0
  -30.9663    0.6821   25.4236 C   0  0  0  0  0  0  0  0  0  0  0  0
  -31.3803    1.1840   26.6628 C   0  0  0  0  0  0  0  0  0  0  0  0
  -30.5272    1.3121   27.7074 C   0  0  0  0  0  0  0  0  0  0  0  0
  -29.2477    0.9398   27.5756 C   0  0  0  0  0  0  0  0  0  0  0  0
  -28.8241    2.2256   27.9558 O   0  0  0  0  0  0  0  0  0  0  0  0
  -29.2505    3.1133   28.7372 C   0  0  0  0  0  0  0  0  0  0  0  0
  -28.5055    4.3535   28.7263 C   0  0  0  0  0  0  0  0  0  0  0  0
  3  7  1  0
  7  8  1  0
  7  9  1  0
  9 10  1  0
 15 16  1  0
 16 17  1  0
 17 18  2  0
  1  2  2  0
  2  5  1  0
  5  6  2  0
  6  4  1  0
  4  3  2  0
  3  1  1  0
 10 11  2  0
 11 12  1  0
 12 13  2  0
 13 14  1  0
 14 15  2  0
 15 10  1  0
M  END

$$$$
