No_3196-gen_results/8p0m/2024-11-27-11-27-31/
     RDKit          3D

 29 31  0  0  0  0  0  0  0  0999 V2000
  -28.0162   -0.8135   28.8779 C   0  0  0  0  0  0  0  0  0  0  0  0
  -27.0636   -0.1189   28.6079 C   0  0  0  0  0  0  0  0  0  0  0  0
  -25.7923   -0.4302   29.0761 C   0  0  0  0  0  0  0  0  0  0  0  0
  -24.5456    0.3494   28.8225 C   0  0  0  0  0  0  0  0  0  0  0  0
  -24.6586    1.4196   27.8878 C   0  0  0  0  0  0  0  0  0  0  0  0
  -25.9471    1.6811   27.3792 C   0  0  0  0  0  0  0  0  0  0  0  0
  -27.0439    0.9739   27.6871 C   0  0  0  0  0  0  0  0  0  0  0  0
  -28.6567   -0.5529   30.0960 N   0  0  0  0  0  0  0  0  0  0  0  0
  -29.6293   -1.2869   30.6343 C   0  0  0  0  0  0  0  0  0  0  0  0
  -30.1544   -0.9011   31.9004 C   0  0  0  0  0  0  0  0  0  0  0  0
  -28.2410    0.5095   30.9665 C   0  0  0  0  0  0  0  0  0  0  0  0
  -28.7266    0.8599   32.1335 C   0  0  0  0  0  0  0  0  0  0  0  0
  -29.7106    0.1338   32.6449 C   0  0  0  0  0  0  0  0  0  0  0  0
  -23.4603    2.1431   27.5538 C   0  0  0  0  0  0  0  0  0  0  0  0
  -22.2424    1.7361   28.0515 N   0  0  0  0  0  0  0  0  0  0  0  0
  -22.1185    0.6794   28.9094 C   0  0  0  0  0  0  0  0  0  0  0  0
  -23.2247   -0.0477   29.2880 C   0  0  0  0  0  0  0  0  0  0  0  0
  -23.3400    3.0688   26.6643 O   0  0  0  0  0  0  0  0  0  0  0  0
  -28.3431    1.3950   27.0820 C   0  0  0  0  0  0  0  0  0  0  0  0
  -28.5441    1.8963   26.2101 O   0  0  0  0  0  0  0  0  0  0  0  0
  -29.4055    1.0901   27.8904 O   0  0  0  0  0  0  0  0  0  0  0  0
  -23.0853   -1.2097   30.1585 C   0  0  0  0  0  0  0  0  0  0  0  0
  -23.9251   -1.1562   31.0467 F   0  0  0  0  0  0  0  0  0  0  0  0
  -23.1329   -2.3243   29.4286 F   0  0  0  0  0  0  0  0  0  0  0  0
  -21.8597   -1.1963   30.7148 F   0  0  0  0  0  0  0  0  0  0  0  0
  -30.6310    1.6693   27.4873 C   0  0  0  0  0  0  0  0  0  0  0  0
  -31.0098    2.6274   28.3469 C   0  0  0  0  0  0  0  0  0  0  0  0
  -31.9752    2.8875   28.9248 C   0  0  0  0  0  0  0  0  0  0  0  0
  -32.2967    3.5692   29.7841 C   0  0  0  0  0  0  0  0  0  0  0  0
  1  2  1  0
  1  8  1  0
  8  9  1  0
  8 11  1  0
 10 13  1  0
 12 13  1  0
  5 14  1  0
 14 15  1  0
  4 17  1  0
 16 17  1  0
 14 18  2  0
  7 19  1  0
 19 20  2  0
 19 21  1  0
 17 22  1  0
 22 23  1  0
 22 24  1  0
 22 25  1  0
 21 26  1  0
 26 27  1  0
 27 28  2  3
 28 29  1  0
  9 10  1  0
 12 11  1  0
 16 15  1  0
  2  3  2  0
  3  4  1  0
  4  5  2  0
  5  6  1  0
  6  7  2  0
  7  2  1  0
M  END

$$$$
