No_3758-gen_results/8p0m/2024-11-27-11-27-31/
     RDKit          3D

 18 20  0  0  0  0  0  0  0  0999 V2000
  -28.0162   -0.8135   28.8779 C   0  0  0  0  0  0  0  0  0  0  0  0
  -28.4690   -0.7850   29.8287 C   0  0  0  0  0  0  0  0  0  0  0  0
  -26.5042   -0.7777   28.8766 C   0  0  0  0  0  0  0  0  0  0  0  0
  -25.8103   -0.8531   30.1028 C   0  0  0  0  0  0  0  0  0  0  0  0
  -27.9906   -0.8916   31.2257 C   0  0  0  0  0  0  0  0  0  0  0  0
  -26.6042   -0.8676   31.2652 C   0  0  0  0  0  0  0  0  0  0  0  0
  -24.3894   -0.8049   30.1638 C   0  0  0  0  0  0  0  0  0  0  0  0
  -23.8172    0.4762   29.9118 C   0  0  0  0  0  0  0  0  0  0  0  0
  -24.1955    1.5984   30.1917 C   0  0  0  0  0  0  0  0  0  0  0  0
  -23.6267    2.6425   29.5764 N   0  0  0  0  0  0  0  0  0  0  0  0
  -22.6916    0.7061   28.8890 C   0  0  0  0  0  0  0  0  0  0  0  0
  -22.6350    1.9839   28.6989 C   0  0  0  0  0  0  0  0  0  0  0  0
  -25.1713    1.9824   31.1969 N   0  0  0  0  0  0  0  0  0  0  0  0
  -24.9222    2.1980   32.5138 C   0  0  0  0  0  0  0  0  0  0  0  0
  -26.3459    2.6607   30.7126 C   0  0  0  0  0  0  0  0  0  0  0  0
  -27.3555    2.9430   31.6624 C   0  0  0  0  0  0  0  0  0  0  0  0
  -26.9991    3.1562   33.0235 C   0  0  0  0  0  0  0  0  0  0  0  0
  -25.9997    3.2270   33.3478 C   0  0  0  0  0  0  0  0  0  0  0  0
  4  7  1  0
  7  8  1  0
  8  9  1  0
  9 10  2  0
  8 11  1  0
 10 12  1  0
 11 12  2  0
  9 13  1  0
 13 14  1  0
 13 15  1  0
 16 17  1  0
 14 18  1  0
 18 17  1  0
 16 15  1  0
  1  2  2  0
  2  5  1  0
  5  6  2  0
  6  4  1  0
  4  3  2  0
  3  1  1  0
M  END

$$$$
