No_3830-gen_results/8p0m/2024-11-27-11-27-31/
     RDKit          3D

 20 22  0  0  0  0  0  0  0  0999 V2000
  -28.0162   -0.8135   28.8779 C   0  0  0  0  0  0  0  0  0  0  0  0
  -27.0636   -0.1189   28.6079 C   0  0  0  0  0  0  0  0  0  0  0  0
  -25.7647   -0.3897   29.0360 C   0  0  0  0  0  0  0  0  0  0  0  0
  -25.5296   -1.5302   29.9014 C   0  0  0  0  0  0  0  0  0  0  0  0
  -26.6577   -2.2915   30.2035 C   0  0  0  0  0  0  0  0  0  0  0  0
  -27.8548   -1.9555   29.7630 C   0  0  0  0  0  0  0  0  0  0  0  0
  -24.5441    0.4126   28.7379 C   0  0  0  0  0  0  0  0  0  0  0  0
  -23.3231    0.0476   29.0499 C   0  0  0  0  0  0  0  0  0  0  0  0
  -23.2018   -1.2373   29.7566 C   0  0  0  0  0  0  0  0  0  0  0  0
  -24.2259   -1.9647   30.2122 C   0  0  0  0  0  0  0  0  0  0  0  0
  -22.1154    0.7752   28.7156 C   0  0  0  0  0  0  0  0  0  0  0  0
  -21.0872    0.1221   28.7213 F   0  0  0  0  0  0  0  0  0  0  0  0
  -21.8586    1.8290   29.5012 F   0  0  0  0  0  0  0  0  0  0  0  0
  -22.2742    1.3179   27.4492 F   0  0  0  0  0  0  0  0  0  0  0  0
  -27.2077    1.0904   27.6748 C   0  0  0  0  0  0  0  0  0  0  0  0
  -27.6836    0.9260   26.4516 C   0  0  0  0  0  0  0  0  0  0  0  0
  -27.7723    2.0597   25.6048 C   0  0  0  0  0  0  0  0  0  0  0  0
  -27.3163    3.3365   25.9658 C   0  0  0  0  0  0  0  0  0  0  0  0
  -26.7056    3.4586   27.2146 C   0  0  0  0  0  0  0  0  0  0  0  0
  -26.6371    2.4133   28.0698 C   0  0  0  0  0  0  0  0  0  0  0  0
  8 11  1  0
 11 12  1  0
 11 13  1  0
 11 14  1  0
  2 15  1  0
 15 16  2  0
 16 17  1  0
 17 18  2  0
 18 19  1  0
 19 20  2  0
 20 15  1  0
  1  2  2  0
  2  3  1  0
  4  5  1  0
  5  6  2  0
  6  1  1  0
  3  4  2  0
  4 10  1  0
 10  9  2  0
  9  8  1  0
  8  7  2  0
  7  3  1  0
M  END

$$$$
