No_3001-gen_results/8p0m/2024-11-27-11-27-31/
     RDKit          3D

  7  7  0  0  0  0  0  0  0  0999 V2000
  -28.0162   -0.8135   28.8779 C   0  0  0  0  0  0  0  0  0  0  0  0
  -27.0636   -0.1189   28.6079 C   0  0  0  0  0  0  0  0  0  0  0  0
  -27.0425    0.2440   27.4277 F   0  0  0  0  0  0  0  0  0  0  0  0
  -27.9558   -1.5526   30.1905 C   0  0  0  0  0  0  0  0  0  0  0  0
  -26.8182   -1.3634   31.0291 C   0  0  0  0  0  0  0  0  0  0  0  0
  -25.7331   -0.6388   30.6101 C   0  0  0  0  0  0  0  0  0  0  0  0
  -25.8439   -0.0135   29.3153 C   0  0  0  0  0  0  0  0  0  0  0  0
  2  3  1  0
  1  2  2  0
  2  7  1  0
  7  6  2  0
  6  5  1  0
  5  4  2  0
  4  1  1  0
M  END

$$$$
