No_3747-gen_results/8p0m/2024-11-27-11-27-31/
     RDKit          3D

 27 31  0  0  0  0  0  0  0  0999 V2000
  -28.0162   -0.8135   28.8779 C   0  0  0  0  0  0  0  0  0  0  0  0
  -27.0636   -0.1190   28.6079 C   0  0  0  0  0  0  0  0  0  0  0  0
  -25.7647   -0.3897   29.0360 C   0  0  0  0  0  0  0  0  0  0  0  0
  -24.5516    0.4058   28.7646 C   0  0  0  0  0  0  0  0  0  0  0  0
  -24.6957    1.4480   27.7988 C   0  0  0  0  0  0  0  0  0  0  0  0
  -26.0010    1.6784   27.2965 C   0  0  0  0  0  0  0  0  0  0  0  0
  -27.0736    0.9682   27.6500 C   0  0  0  0  0  0  0  0  0  0  0  0
  -29.2650   -0.1181   29.1802 C   0  0  0  0  0  0  0  0  0  0  0  0
  -30.1668   -0.6809   30.0078 C   0  0  0  0  0  0  0  0  0  0  0  0
  -29.9568   -2.0454   30.4479 C   0  0  0  0  0  0  0  0  0  0  0  0
  -28.7397   -2.6436   30.3241 C   0  0  0  0  0  0  0  0  0  0  0  0
  -27.7388   -1.9650   29.7536 C   0  0  0  0  0  0  0  0  0  0  0  0
  -26.3715   -2.4647   29.7939 C   0  0  0  0  0  0  0  0  0  0  0  0
  -25.4333   -1.6183   29.7026 C   0  0  0  0  0  0  0  0  0  0  0  0
  -23.1920    0.0812   29.2126 C   0  0  0  0  0  0  0  0  0  0  0  0
  -22.8034   -1.0461   29.8076 C   0  0  0  0  0  0  0  0  0  0  0  0
  -24.0252   -2.0206   30.1164 C   0  0  0  0  0  0  0  0  0  0  0  0
  -31.0649   -2.6912   31.1875 C   0  0  0  0  0  0  0  0  0  0  0  0
  -31.8085   -2.3174   31.8865 O   0  0  0  0  0  0  0  0  0  0  0  0
  -30.8270   -4.0842   31.2354 N   0  0  0  0  0  0  0  0  0  0  0  0
  -30.0038   -4.8217   30.6580 C   0  0  0  0  0  0  0  0  0  0  0  0
  -28.8535   -4.1418   30.2538 C   0  0  0  0  0  0  0  0  0  0  0  0
  -32.1129   -4.7816   31.7331 C   0  0  0  0  0  0  0  0  0  0  0  0
  -23.3017    2.4668   27.3332 P   0  0  0  0  0  0  0  0  0  0  0  0
  -22.2016    1.8469   27.9540 O   0  0  0  0  0  0  0  0  0  0  0  0
  -23.3578    2.3923   25.7796 O   0  0  0  0  0  0  0  0  0  0  0  0
  -23.7970    3.8534   27.6926 O   0  0  0  0  0  0  0  0  0  0  0  0
  1  2  2  0
  2  3  1  0
  3  4  1  0
  4  5  2  0
  5  6  1  0
  2  7  1  0
  6  7  2  0
  1  8  1  0
  8  9  2  0
  9 10  1  0
 10 11  2  0
  1 12  1  0
 11 12  1  0
 12 13  1  0
  3 14  1  0
 13 14  1  0
  4 15  1  0
 15 16  2  0
 14 17  1  0
 16 17  1  0
 10 18  1  0
 18 19  2  0
 18 20  1  0
 20 21  1  0
 11 22  1  0
 21 22  1  0
 20 23  1  0
  5 24  1  0
 24 25  1  0
 24 26  2  0
 24 27  1  0
M  END

$$$$
