No_3932-gen_results/8p0m/2024-11-27-11-27-31/
     RDKit          3D

 27 28  0  0  0  0  0  0  0  0999 V2000
  -28.0162   -0.8135   28.8779 C   0  0  0  0  0  0  0  0  0  0  0  0
  -27.0636   -0.1190   28.6079 C   0  0  0  0  0  0  0  0  0  0  0  0
  -25.7647   -0.3897   29.0360 C   0  0  0  0  0  0  0  0  0  0  0  0
  -25.5296   -1.5302   29.9014 C   0  0  0  0  0  0  0  0  0  0  0  0
  -26.6888   -2.2893   30.1810 C   0  0  0  0  0  0  0  0  0  0  0  0
  -27.8727   -1.9508   29.7373 C   0  0  0  0  0  0  0  0  0  0  0  0
  -24.5491    0.4100   28.7341 C   0  0  0  0  0  0  0  0  0  0  0  0
  -24.4789    1.1871   27.6843 C   0  0  0  0  0  0  0  0  0  0  0  0
  -23.2716    1.8973   27.3731 C   0  0  0  0  0  0  0  0  0  0  0  0
  -22.1063    1.7032   28.0412 C   0  0  0  0  0  0  0  0  0  0  0  0
  -23.3188    0.1792   29.4669 C   0  0  0  0  0  0  0  0  0  0  0  0
  -22.1165    0.8402   29.1011 C   0  0  0  0  0  0  0  0  0  0  0  0
  -29.2295   -2.8994   30.2078 Cl  0  0  0  0  0  0  0  0  0  0  0  0
  -23.3239    2.7573   26.3248 F   0  0  0  0  0  0  0  0  0  0  0  0
  -29.2799   -0.5276   28.4863 O   0  0  0  0  0  0  0  0  0  0  0  0
  -30.1260    0.1580   29.2753 C   0  0  0  0  0  0  0  0  0  0  0  0
  -30.6391    1.2555   28.5857 C   0  0  0  0  0  0  0  0  0  0  0  0
  -30.5832    1.4600   27.4798 O   0  0  0  0  0  0  0  0  0  0  0  0
  -31.6079    2.0077   29.3743 N   0  0  0  0  0  0  0  0  0  0  0  0
  -32.2919    3.1375   28.8217 C   0  0  0  0  0  0  0  0  0  0  0  0
  -31.6820    4.0732   28.3093 C   0  0  0  0  0  0  0  0  0  0  0  0
  -30.6677    4.6477   29.0393 C   0  0  0  0  0  0  0  0  0  0  0  0
  -29.7433    5.0780   28.9693 C   0  0  0  0  0  0  0  0  0  0  0  0
  -28.7211    5.6506   29.9154 C   0  0  0  0  0  0  0  0  0  0  0  0
  -29.0755    5.4483   31.2418 C   0  0  0  0  0  0  0  0  0  0  0  0
  -30.2446    4.8254   31.5251 C   0  0  0  0  0  0  0  0  0  0  0  0
  -30.6355    4.5911   32.8729 C   0  0  0  0  0  0  0  0  0  0  0  0
  3  7  1  0
  6 13  1  0
  9 14  1  0
  1 15  1  0
 15 16  1  0
 16 17  1  0
 17 18  2  0
 17 19  1  0
 19 20  1  0
 20 21  1  0
 21 22  2  3
 22 23  1  0
 23 24  2  3
 24 25  1  0
 25 26  2  3
 26 27  1  0
  7  8  2  0
  8  9  1  0
  9 10  2  0
 10 12  1  0
 12 11  2  0
 11  7  1  0
  1  2  2  0
  2  3  1  0
  3  4  2  0
  4  5  1  0
  5  6  2  0
  6  1  1  0
M  END

$$$$
