No_3939-gen_results/8p0m/2024-11-27-11-27-31/
     RDKit          3D

 15 16  0  0  0  0  0  0  0  0999 V2000
  -28.0162   -0.8135   28.8779 C   0  0  0  0  0  0  0  0  0  0  0  0
  -28.4690   -0.7850   29.8287 C   0  0  0  0  0  0  0  0  0  0  0  0
  -26.5042   -0.7777   28.8766 C   0  0  0  0  0  0  0  0  0  0  0  0
  -25.8103   -0.8531   30.1028 C   0  0  0  0  0  0  0  0  0  0  0  0
  -27.9906   -0.8916   31.2257 C   0  0  0  0  0  0  0  0  0  0  0  0
  -26.6042   -0.8676   31.2652 C   0  0  0  0  0  0  0  0  0  0  0  0
  -29.9342   -0.7549   29.6857 O   0  0  0  0  0  0  0  0  0  0  0  0
  -30.7516   -1.5020   30.3037 C   0  0  0  0  0  0  0  0  0  0  0  0
  -24.3665   -0.8174   30.1599 C   0  0  0  0  0  0  0  0  0  0  0  0
  -23.6092   -0.6288   29.0903 C   0  0  0  0  0  0  0  0  0  0  0  0
  -22.1450   -0.4809   29.2239 C   0  0  0  0  0  0  0  0  0  0  0  0
  -21.4127   -0.0815   28.0931 C   0  0  0  0  0  0  0  0  0  0  0  0
  -22.0781    0.8856   27.2396 C   0  0  0  0  0  0  0  0  0  0  0  0
  -23.5204    1.0383   27.2790 C   0  0  0  0  0  0  0  0  0  0  0  0
  -24.1977    0.3686   28.2470 C   0  0  0  0  0  0  0  0  0  0  0  0
  2  7  1  0
  7  8  1  0
  4  9  1  0
  9 10  1  0
  1  2  2  0
  2  5  1  0
  5  6  2  0
  6  4  1  0
  4  3  2  0
  3  1  1  0
 10 11  2  0
 11 12  1  0
 12 13  2  0
 13 14  1  0
 14 15  2  0
 15 10  1  0
M  END

$$$$
