No_315-gen_results/8p0m/2024-11-27-11-27-31/
     RDKit          3D

 22 23  0  0  0  0  0  0  0  0999 V2000
  -28.0162   -0.8135   28.8779 C   0  0  0  0  0  0  0  0  0  0  0  0
  -27.0636   -0.1189   28.6079 C   0  0  0  0  0  0  0  0  0  0  0  0
  -26.9716    0.7139   27.5060 C   0  0  0  0  0  0  0  0  0  0  0  0
  -25.8205    1.4909   27.1160 C   0  0  0  0  0  0  0  0  0  0  0  0
  -24.8579    1.3421   27.6008 C   0  0  0  0  0  0  0  0  0  0  0  0
  -24.6224    0.5295   28.8144 C   0  0  0  0  0  0  0  0  0  0  0  0
  -25.7344   -0.1811   29.1908 C   0  0  0  0  0  0  0  0  0  0  0  0
  -29.2135   -0.0949   29.3828 C   0  0  0  0  0  0  0  0  0  0  0  0
  -29.5388    0.9294   28.9079 C   0  0  0  0  0  0  0  0  0  0  0  0
  -30.7118    1.5828   29.4374 C   0  0  0  0  0  0  0  0  0  0  0  0
  -31.4948    0.9106   30.3482 C   0  0  0  0  0  0  0  0  0  0  0  0
  -30.0229   -0.7168   30.5151 C   0  0  0  0  0  0  0  0  0  0  0  0
  -31.0987   -0.1679   30.8997 N   0  0  0  0  0  0  0  0  0  0  0  0
  -23.5123    2.0926   27.2612 C   0  0  0  0  0  0  0  0  0  0  0  0
  -23.6799    3.0516   26.6586 F   0  0  0  0  0  0  0  0  0  0  0  0
  -22.8002    2.4945   28.4223 F   0  0  0  0  0  0  0  0  0  0  0  0
  -22.5875    1.2820   26.6861 F   0  0  0  0  0  0  0  0  0  0  0  0
  -32.6297    1.5648   30.9155 N   0  0  0  0  0  0  0  0  0  0  0  0
  -33.4395    2.3067   30.1770 C   0  0  0  0  0  0  0  0  0  0  0  0
  -34.6175    2.7662   30.7840 C   0  0  0  0  0  0  0  0  0  0  0  0
  -35.0019    2.2145   32.0185 C   0  0  0  0  0  0  0  0  0  0  0  0
  -34.1204    1.3891   32.6960 C   0  0  0  0  0  0  0  0  0  0  0  0
  1  8  1  0
  5 14  1  0
 14 15  1  0
 14 16  1  0
 14 17  1  0
 11 18  1  0
 18 19  2  3
 19 20  1  0
 20 21  2  3
 21 22  1  0
  1  2  1  0
  2  3  2  0
  3  4  1  0
  4  5  2  0
  5  6  1  0
  6  7  2  0
  7  2  1  0
  8  9  2  0
  9 10  1  0
 10 11  2  0
 11 13  1  0
 13 12  2  0
 12  8  1  0
M  END

$$$$
