No_3012-gen_results/8p0m/2024-11-27-11-27-31/
     RDKit          3D

 12 12  0  0  0  0  0  0  0  0999 V2000
  -28.0162   -0.8135   28.8779 C   0  0  0  0  0  0  0  0  0  0  0  0
  -28.4690   -0.7850   29.8287 C   0  0  0  0  0  0  0  0  0  0  0  0
  -26.5455   -0.8762   28.8500 C   0  0  0  0  0  0  0  0  0  0  0  0
  -25.8041   -1.0324   30.0571 C   0  0  0  0  0  0  0  0  0  0  0  0
  -26.5373   -1.0386   31.2171 C   0  0  0  0  0  0  0  0  0  0  0  0
  -27.8843   -0.9532   31.1862 C   0  0  0  0  0  0  0  0  0  0  0  0
  -24.3655   -1.1134   30.0483 C   0  0  0  0  0  0  0  0  0  0  0  0
  -23.9722   -1.9246   30.7322 F   0  0  0  0  0  0  0  0  0  0  0  0
  -23.8430   -1.2928   28.7789 F   0  0  0  0  0  0  0  0  0  0  0  0
  -23.8322    0.0825   30.4695 F   0  0  0  0  0  0  0  0  0  0  0  0
  -25.6427   -2.0400   30.0710 F   0  0  0  0  0  0  0  0  0  0  0  0
  -25.9001   -0.6152   27.6996 O   0  0  0  0  0  0  0  0  0  0  0  0
  1  3  1  0
  3  4  1  0
  4  5  1  0
  2  6  1  0
  4  7  1  0
  7  8  1  0
  7  9  1  0
  7 10  1  0
  4 11  1  0
  3 12  2  0
  1  2  1  0
  6  5  1  0
M  END

$$$$
