No_3048-gen_results/8p0m/2024-11-27-11-27-31/
     RDKit          3D

 21 21  0  0  0  0  0  0  0  0999 V2000
  -28.0162   -0.8135   28.8779 C   0  0  0  0  0  0  0  0  0  0  0  0
  -27.0636   -0.1190   28.6079 C   0  0  0  0  0  0  0  0  0  0  0  0
  -27.0010    0.6913   27.4910 C   0  0  0  0  0  0  0  0  0  0  0  0
  -25.8548    1.4825   27.0830 C   0  0  0  0  0  0  0  0  0  0  0  0
  -24.6901    1.4526   27.8807 C   0  0  0  0  0  0  0  0  0  0  0  0
  -24.7379    0.6010   29.0416 C   0  0  0  0  0  0  0  0  0  0  0  0
  -25.8234   -0.1688   29.3887 C   0  0  0  0  0  0  0  0  0  0  0  0
  -29.0018   -0.5559   28.2415 F   0  0  0  0  0  0  0  0  0  0  0  0
  -28.3558   -0.6840   30.2688 F   0  0  0  0  0  0  0  0  0  0  0  0
  -23.5135    2.2142   27.5784 C   0  0  0  0  0  0  0  0  0  0  0  0
  -22.6175    1.7461   27.1948 O   0  0  0  0  0  0  0  0  0  0  0  0
  -23.5657    3.4670   27.9850 O   0  0  0  0  0  0  0  0  0  0  0  0
  -23.5064    0.5051   29.8942 C   0  0  0  0  0  0  0  0  0  0  0  0
  -23.3426   -0.5632   30.6799 C   0  0  0  0  0  0  0  0  0  0  0  0
  -23.7811   -0.4307   31.9637 C   0  0  0  0  0  0  0  0  0  0  0  0
  -22.6168   -1.6530   30.1866 C   0  0  0  0  0  0  0  0  0  0  0  0
  -23.4327   -1.3656   32.8141 F   0  0  0  0  0  0  0  0  0  0  0  0
  -24.4871    0.4545   32.4130 F   0  0  0  0  0  0  0  0  0  0  0  0
  -27.6942   -2.1210   28.8662 F   0  0  0  0  0  0  0  0  0  0  0  0
  -21.7318   -1.4574   29.3140 O   0  0  0  0  0  0  0  0  0  0  0  0
  -25.9159    2.2882   25.9276 C   0  0  0  0  0  0  0  0  0  0  0  0
  1  2  1  0
  1  8  1  0
  1  9  1  0
  5 10  1  0
 10 11  2  0
 10 12  1  0
  6 13  1  0
 13 14  1  0
 14 15  1  0
 14 16  1  0
 15 17  1  0
 15 18  1  0
  1 19  1  0
 16 20  1  0
  4 21  1  0
  2  3  2  0
  3  4  1  0
  4  5  2  0
  5  6  1  0
  6  7  2  0
  7  2  1  0
M  END

$$$$
