No_3345-gen_results/8p0m/2024-11-27-11-27-31/
     RDKit          3D

 17 19  0  0  0  0  0  0  0  0999 V2000
  -28.0162   -0.8135   28.8779 C   0  0  0  0  0  0  0  0  0  0  0  0
  -28.4690   -0.7850   29.8287 C   0  0  0  0  0  0  0  0  0  0  0  0
  -28.1960    0.3478   28.0550 C   0  0  0  0  0  0  0  0  0  0  0  0
  -27.4421    0.5100   26.7946 C   0  0  0  0  0  0  0  0  0  0  0  0
  -27.8427    1.3330   25.8056 C   0  0  0  0  0  0  0  0  0  0  0  0
  -29.4956    0.1092   30.3452 C   0  0  0  0  0  0  0  0  0  0  0  0
  -29.7284    1.1870   29.5687 C   0  0  0  0  0  0  0  0  0  0  0  0
  -29.0420    1.3665   28.3718 C   0  0  0  0  0  0  0  0  0  0  0  0
  -26.1281   -0.0671   26.6257 C   0  0  0  0  0  0  0  0  0  0  0  0
  -25.0056    0.6927   27.1660 C   0  0  0  0  0  0  0  0  0  0  0  0
  -24.5259    1.7238   26.4577 C   0  0  0  0  0  0  0  0  0  0  0  0
  -23.5958    2.5019   26.7526 C   0  0  0  0  0  0  0  0  0  0  0  0
  -22.7576    2.2086   27.8995 C   0  0  0  0  0  0  0  0  0  0  0  0
  -24.2920    0.2941   28.3486 C   0  0  0  0  0  0  0  0  0  0  0  0
  -23.1267    1.0776   28.6883 C   0  0  0  0  0  0  0  0  0  0  0  0
  -29.2609    2.4092   27.4859 C   0  0  0  0  0  0  0  0  0  0  0  0
  -28.6842    2.4167   26.1855 C   0  0  0  0  0  0  0  0  0  0  0  0
  4  9  1  0
  9 10  1  0
  3  4  2  0
  4  5  1  0
  5 17  2  0
 17 16  1  0
 16  8  2  0
 10 11  2  0
 11 12  1  0
 12 13  2  0
 13 15  1  0
 15 14  2  0
 14 10  1  0
  1  2  2  0
  2  6  1  0
  6  7  2  0
  7  8  1  0
  8  3  1  0
  3  1  1  0
M  END

$$$$
