No_3361-gen_results/8p0m/2024-11-27-11-27-31/
     RDKit          3D

 13 14  0  0  0  0  0  0  0  0999 V2000
  -28.0162   -0.8135   28.8779 C   0  0  0  0  0  0  0  0  0  0  0  0
  -27.0636   -0.1189   28.6079 C   0  0  0  0  0  0  0  0  0  0  0  0
  -25.7923   -0.4302   29.0761 C   0  0  0  0  0  0  0  0  0  0  0  0
  -25.5756   -1.5654   29.9363 C   0  0  0  0  0  0  0  0  0  0  0  0
  -26.7354   -2.3004   30.2173 C   0  0  0  0  0  0  0  0  0  0  0  0
  -27.9184   -1.9537   29.7629 C   0  0  0  0  0  0  0  0  0  0  0  0
  -27.3243    1.0850   27.8190 C   0  0  0  0  0  0  0  0  0  0  0  0
  -26.2674    1.9087   27.5697 C   0  0  0  0  0  0  0  0  0  0  0  0
  -26.3157    3.1098   26.8315 C   0  0  0  0  0  0  0  0  0  0  0  0
  -25.1484    3.9179   26.5369 C   0  0  0  0  0  0  0  0  0  0  0  0
  -23.9124    3.4394   26.9487 C   0  0  0  0  0  0  0  0  0  0  0  0
  -23.8098    2.2196   27.5712 C   0  0  0  0  0  0  0  0  0  0  0  0
  -24.8977    1.4606   27.8975 C   0  0  0  0  0  0  0  0  0  0  0  0
  2  7  1  0
  7  8  1  0
  1  2  2  0
  2  3  1  0
  3  4  2  0
  4  5  1  0
  5  6  2  0
  6  1  1  0
  8  9  2  0
  9 10  1  0
 10 11  2  0
 11 12  1  0
 12 13  2  0
 13  8  1  0
M  END

$$$$
