No_3498-gen_results/8p0m/2024-11-27-11-27-31/
     RDKit          3D

 35 38  0  0  0  0  0  0  0  0999 V2000
  -28.0162   -0.8135   28.8779 C   0  0  0  0  0  0  0  0  0  0  0  0
  -27.0636   -0.1189   28.6079 C   0  0  0  0  0  0  0  0  0  0  0  0
  -26.8756    1.1325   28.9134 C   0  0  0  0  0  0  0  0  0  0  0  0
  -27.9014    1.8066   29.6436 C   0  0  0  0  0  0  0  0  0  0  0  0
  -29.0458   -0.2316   29.7181 C   0  0  0  0  0  0  0  0  0  0  0  0
  -28.9402    1.0517   30.0597 C   0  0  0  0  0  0  0  0  0  0  0  0
  -25.8732   -0.7125   27.8045 C   0  0  0  0  0  0  0  0  0  0  0  0
  -24.7599   -1.1987   28.6570 C   0  0  0  0  0  0  0  0  0  0  0  0
  -23.6191   -0.4133   28.9109 C   0  0  0  0  0  0  0  0  0  0  0  0
  -22.5564   -0.9725   29.6382 C   0  0  0  0  0  0  0  0  0  0  0  0
  -24.6712   -2.5552   29.0515 C   0  0  0  0  0  0  0  0  0  0  0  0
  -25.7792   -3.4571   28.8589 C   0  0  0  0  0  0  0  0  0  0  0  0
  -22.6212   -2.2465   30.1034 C   0  0  0  0  0  0  0  0  0  0  0  0
  -23.6457   -2.9920   29.8002 C   0  0  0  0  0  0  0  0  0  0  0  0
  -26.5434   -3.6275   30.0113 C   0  0  0  0  0  0  0  0  0  0  0  0
  -27.5574   -4.6601   30.0572 C   0  0  0  0  0  0  0  0  0  0  0  0
  -28.7802   -4.2797   30.7037 C   0  0  0  0  0  0  0  0  0  0  0  0
  -28.8440   -3.2735   31.6914 C   0  0  0  0  0  0  0  0  0  0  0  0
  -27.8461   -2.2606   31.5577 C   0  0  0  0  0  0  0  0  0  0  0  0
  -26.8291   -2.3407   30.7215 C   0  0  0  0  0  0  0  0  0  0  0  0
  -25.3463    0.3789   26.8521 C   0  0  0  0  0  0  0  0  0  0  0  0
  -30.1230   -0.9496   30.1066 O   0  0  0  0  0  0  0  0  0  0  0  0
  -31.0860   -1.2437   29.1855 C   0  0  0  0  0  0  0  0  0  0  0  0
  -32.0534   -2.1423   29.6701 C   0  0  0  0  0  0  0  0  0  0  0  0
  -32.3522   -2.2530   30.8834 C   0  0  0  0  0  0  0  0  0  0  0  0
  -33.3935   -3.1608   31.3860 C   0  0  0  0  0  0  0  0  0  0  0  0
  -34.0051   -3.9524   30.3896 C   0  0  0  0  0  0  0  0  0  0  0  0
  -33.6916   -3.8662   29.0757 C   0  0  0  0  0  0  0  0  0  0  0  0
  -32.7254   -2.9340   28.6860 C   0  0  0  0  0  0  0  0  0  0  0  0
  -31.1409   -0.6674   28.1164 O   0  0  0  0  0  0  0  0  0  0  0  0
  -29.5746   -5.3315   30.9500 O   0  0  0  0  0  0  0  0  0  0  0  0
  -30.6667   -5.3810   30.0300 C   0  0  0  0  0  0  0  0  0  0  0  0
  -31.4648   -6.5659   30.1486 C   0  0  0  0  0  0  0  0  0  0  0  0
  -31.8562   -7.0446   31.3225 C   0  0  0  0  0  0  0  0  0  0  0  0
  -32.5721   -8.2978   31.3969 C   0  0  0  0  0  0  0  0  0  0  0  0
  2  7  1  0
  7  8  1  0
 11 12  1  0
 12 15  1  0
  7 21  1  0
  5 22  1  0
 22 23  1  0
 23 24  1  0
 23 30  2  0
 17 31  1  0
 31 32  1  0
 32 33  2  3
 33 34  1  0
 34 35  2  0
 15 16  2  0
 16 17  1  0
 17 18  2  0
 18 19  1  0
 19 20  2  0
 20 15  1  0
  8  9  2  0
  9 10  1  0
 10 13  2  0
 13 14  1  0
 14 11  2  0
 11  8  1  0
 24 25  2  0
 25 26  1  0
 26 27  2  0
 27 28  1  0
 28 29  2  0
 29 24  1  0
  1  2  2  0
  2  3  1  0
  3  4  2  0
  4  6  1  0
  6  5  2  0
  5  1  1  0
M  END

$$$$
