No_391-gen_results/8p0m/2024-11-27-11-27-31/
     RDKit          3D

 13 13  0  0  0  0  0  0  0  0999 V2000
  -28.1493   -0.8198   28.9079 Cl  0  0  0  0  0  0  0  0  0  0  0  0
  -26.9116   -0.0797   28.9452 C   0  0  0  0  0  0  0  0  0  0  0  0
  -26.8992    0.8738   29.5759 F   0  0  0  0  0  0  0  0  0  0  0  0
  -25.7709   -0.4865   28.1740 C   0  0  0  0  0  0  0  0  0  0  0  0
  -24.5668    0.1692   28.4821 C   0  0  0  0  0  0  0  0  0  0  0  0
  -24.2064    1.3868   27.9197 C   0  0  0  0  0  0  0  0  0  0  0  0
  -22.8912    1.9386   28.1088 C   0  0  0  0  0  0  0  0  0  0  0  0
  -21.9132    1.1594   28.7502 C   0  0  0  0  0  0  0  0  0  0  0  0
  -22.1783   -0.1104   29.1989 C   0  0  0  0  0  0  0  0  0  0  0  0
  -23.5156   -0.6603   29.0455 C   0  0  0  0  0  0  0  0  0  0  0  0
  -23.7135   -1.8288   29.4479 F   0  0  0  0  0  0  0  0  0  0  0  0
  -25.3537    2.3450   27.1409 Cl  0  0  0  0  0  0  0  0  0  0  0  0
  -21.3235   -0.8398   29.9178 O   0  0  0  0  0  0  0  0  0  0  0  0
  1  2  1  0
  2  3  1  0
  2  4  1  0
  4  5  1  0
 10 11  1  0
  6 12  1  0
  9 13  1  0
  5  6  2  0
  6  7  1  0
  7  8  2  0
  8  9  1  0
  9 10  2  0
 10  5  1  0
M  END

$$$$
