No_3811-gen_results/8p0m/2024-11-27-11-27-31/
     RDKit          3D

 13 14  0  0  0  0  0  0  0  0999 V2000
  -28.0162   -0.8135   28.8779 C   0  0  0  0  0  0  0  0  0  0  0  0
  -27.0636   -0.1190   28.6079 C   0  0  0  0  0  0  0  0  0  0  0  0
  -26.9287    1.1713   29.0083 C   0  0  0  0  0  0  0  0  0  0  0  0
  -27.9560    1.7411   29.7840 C   0  0  0  0  0  0  0  0  0  0  0  0
  -29.0569   -0.3271   29.7466 C   0  0  0  0  0  0  0  0  0  0  0  0
  -28.9828    0.9722   30.1516 C   0  0  0  0  0  0  0  0  0  0  0  0
  -25.9911   -0.6119   27.8566 O   0  0  0  0  0  0  0  0  0  0  0  0
  -24.9038   -1.1483   28.5775 C   0  0  0  0  0  0  0  0  0  0  0  0
  -23.7733   -0.9238   28.7488 C   0  0  0  0  0  0  0  0  0  0  0  0
  -25.2670   -2.5528   29.1249 C   0  0  0  0  0  0  0  0  0  0  0  0
  -22.7926   -1.5184   29.4729 C   0  0  0  0  0  0  0  0  0  0  0  0
  -24.3845   -3.2811   29.7863 C   0  0  0  0  0  0  0  0  0  0  0  0
  -23.1235   -2.7642   30.0154 C   0  0  0  0  0  0  0  0  0  0  0  0
  2  7  1  0
  7  8  1  0
  8  9  2  0
  9 11  1  0
 11 13  2  0
 13 12  1  0
 12 10  2  0
 10  8  1  0
  1  2  2  0
  2  3  1  0
  3  4  2  0
  4  6  1  0
  6  5  2  0
  5  1  1  0
M  END

$$$$
