No_3957-gen_results/8p0m/2024-11-27-11-27-31/
     RDKit          3D

 17 18  0  0  0  0  0  0  0  0999 V2000
  -28.0162   -0.8135   28.8779 C   0  0  0  0  0  0  0  0  0  0  0  0
  -28.4690   -0.7850   29.8287 C   0  0  0  0  0  0  0  0  0  0  0  0
  -27.1356    0.2359   28.5352 C   0  0  0  0  0  0  0  0  0  0  0  0
  -26.8745    1.2825   29.3982 C   0  0  0  0  0  0  0  0  0  0  0  0
  -27.5070    1.2380   30.6295 C   0  0  0  0  0  0  0  0  0  0  0  0
  -28.3293    0.1745   30.9350 C   0  0  0  0  0  0  0  0  0  0  0  0
  -26.4077    0.3070   27.2259 C   0  0  0  0  0  0  0  0  0  0  0  0
  -25.0105    0.3902   27.3228 C   0  0  0  0  0  0  0  0  0  0  0  0
  -24.3683    0.2207   28.5237 C   0  0  0  0  0  0  0  0  0  0  0  0
  -22.9115    0.5661   28.5067 C   0  0  0  0  0  0  0  0  0  0  0  0
  -22.3754    1.3436   27.5093 C   0  0  0  0  0  0  0  0  0  0  0  0
  -23.1359    1.7132   26.4149 C   0  0  0  0  0  0  0  0  0  0  0  0
  -24.4719    1.2805   26.2983 C   0  0  0  0  0  0  0  0  0  0  0  0
  -27.1106    1.1351   26.2947 C   0  0  0  0  0  0  0  0  0  0  0  0
  -28.2730    0.7438   25.8951 C   0  0  0  0  0  0  0  0  0  0  0  0
  -26.5872    2.3661   25.8616 C   0  0  0  0  0  0  0  0  0  0  0  0
  -25.0599    1.2819   25.0488 C   0  0  0  0  0  0  0  0  0  0  0  0
  3  7  1  0
  7 14  1  0
 14 15  1  0
 14 16  1  0
 13 17  1  0
  7  8  1  0
  1  2  2  0
  2  6  1  0
  6  5  2  0
  5  4  1  0
  4  3  2  0
  3  1  1  0
  8  9  2  0
  9 10  1  0
 10 11  2  0
 11 12  1  0
 12 13  2  0
 13  8  1  0
M  END

$$$$
