No_3826-gen_results/8p0m/2024-11-27-11-27-31/
     RDKit          3D

 16 17  0  0  0  0  0  0  0  0999 V2000
  -28.0162   -0.8135   28.8779 C   0  0  0  0  0  0  0  0  0  0  0  0
  -27.0636   -0.1190   28.6079 C   0  0  0  0  0  0  0  0  0  0  0  0
  -25.7923   -0.4302   29.0761 C   0  0  0  0  0  0  0  0  0  0  0  0
  -24.5456    0.3494   28.8225 C   0  0  0  0  0  0  0  0  0  0  0  0
  -24.6586    1.4196   27.8878 C   0  0  0  0  0  0  0  0  0  0  0  0
  -25.9471    1.6811   27.3792 C   0  0  0  0  0  0  0  0  0  0  0  0
  -27.0439    0.9739   27.6871 C   0  0  0  0  0  0  0  0  0  0  0  0
  -28.0485   -1.5981   30.1629 C   0  0  0  0  0  0  0  0  0  0  0  0
  -26.7598   -2.0713   30.6119 C   0  0  0  0  0  0  0  0  0  0  0  0
  -25.6104   -1.4023   30.1709 C   0  0  0  0  0  0  0  0  0  0  0  0
  -28.2846    1.3374   26.9704 C   0  0  0  0  0  0  0  0  0  0  0  0
  -29.2846    1.0918   27.2225 C   0  0  0  0  0  0  0  0  0  0  0  0
  -30.4610    1.4390   26.7539 C   0  0  0  0  0  0  0  0  0  0  0  0
  -31.7616    1.0345   27.1975 C   0  0  0  0  0  0  0  0  0  0  0  0
  -31.7566    0.0500   28.1884 C   0  0  0  0  0  0  0  0  0  0  0  0
  -30.6555   -0.4391   28.7466 C   0  0  0  0  0  0  0  0  0  0  0  0
  7 11  1  0
 11 12  2  3
 12 13  1  0
 13 14  2  3
 14 15  1  0
 15 16  2  0
  3  4  1  0
  4  5  2  0
  5  6  1  0
  6  7  2  0
  7  2  1  0
  1  2  2  0
  2  3  1  0
  3 10  2  0
 10  9  1  0
  9  8  2  0
  8  1  1  0
M  END

$$$$
