No_3998-gen_results/8p0m/2024-11-27-11-27-31/
     RDKit          3D

 35 40  0  0  0  0  0  0  0  0999 V2000
  -28.0162   -0.8135   28.8779 C   0  0  0  0  0  0  0  0  0  0  0  0
  -28.4690   -0.7850   29.8287 C   0  0  0  0  0  0  0  0  0  0  0  0
  -28.3026    0.2475   28.0344 N   0  0  0  0  0  0  0  0  0  0  0  0
  -29.5669    0.6259   27.7714 C   0  0  0  0  0  0  0  0  0  0  0  0
  -30.0167   -0.7032   29.9032 C   0  0  0  0  0  0  0  0  0  0  0  0
  -30.4338   -0.4814   28.9977 C   0  0  0  0  0  0  0  0  0  0  0  0
  -27.3406    0.7146   27.0088 C   0  0  0  0  0  0  0  0  0  0  0  0
  -26.4615    1.7673   27.5843 C   0  0  0  0  0  0  0  0  0  0  0  0
  -25.3573    1.6177   27.9672 C   0  0  0  0  0  0  0  0  0  0  0  0
  -24.4870    2.6690   28.4853 C   0  0  0  0  0  0  0  0  0  0  0  0
  -24.9085    3.9616   28.3244 C   0  0  0  0  0  0  0  0  0  0  0  0
  -26.1436    4.2088   27.7240 C   0  0  0  0  0  0  0  0  0  0  0  0
  -26.9859    3.1080   27.3044 C   0  0  0  0  0  0  0  0  0  0  0  0
  -27.3211    0.2662   25.8768 O   0  0  0  0  0  0  0  0  0  0  0  0
  -31.9351   -0.3892   28.5186 C   0  0  0  0  0  0  0  0  0  0  0  0
  -32.4547    0.3716   27.8580 N   0  0  0  0  0  0  0  0  0  0  0  0
  -32.5858   -1.2330   29.1954 O   0  0  0  0  0  0  0  0  0  0  0  0
  -33.8369    0.3328   27.4251 C   0  0  0  0  0  0  0  0  0  0  0  0
  -23.2672    2.3699   28.9533 O   0  0  0  0  0  0  0  0  0  0  0  0
  -22.6257    1.2799   28.4205 C   0  0  0  0  0  0  0  0  0  0  0  0
  -24.7623    0.3354   28.1749 N   0  0  0  0  0  0  0  0  0  0  0  0
  -23.4047    0.1564   28.3682 C   0  0  0  0  0  0  0  0  0  0  0  0
  -27.9392   -1.5179   31.1726 C   0  0  0  0  0  0  0  0  0  0  0  0
  -28.2852   -1.2518   32.1488 O   0  0  0  0  0  0  0  0  0  0  0  0
  -26.7450   -2.0223   30.9064 O   0  0  0  0  0  0  0  0  0  0  0  0
  -23.2336   -0.7084   29.4817 N   0  0  0  0  0  0  0  0  0  0  0  0
  -23.4556   -2.0543   29.4834 C   0  0  0  0  0  0  0  0  0  0  0  0
  -22.5680   -0.2692   30.6561 C   0  0  0  0  0  0  0  0  0  0  0  0
  -24.6943   -2.4420   30.2180 C   0  0  0  0  0  0  0  0  0  0  0  0
  -25.5106   -1.7963   30.9031 C   0  0  0  0  0  0  0  0  0  0  0  0
  -34.2122    1.1499   26.5385 C   0  0  0  0  0  0  0  0  0  0  0  0
  -33.3658    2.1179   26.0063 C   0  0  0  0  0  0  0  0  0  0  0  0
  -32.0206    2.2180   26.3162 C   0  0  0  0  0  0  0  0  0  0  0  0
  -31.6185    1.4185   27.1700 C   0  0  0  0  0  0  0  0  0  0  0  0
  -30.2771    1.6839   27.7097 C   0  0  0  0  0  0  0  0  0  0  0  0
  1  2  1  0
  1  3  1  0
  3  4  1  0
  2  5  1  0
  4  6  1  0
  3  7  1  0
  7  8  1  0
  7 14  2  0
  6 15  1  0
 15 16  1  0
 15 17  2  0
 16 18  1  0
 10 19  1  0
 19 20  1  0
  9 21  1  0
 20 22  1  0
 21 22  1  0
  2 23  1  0
 23 24  2  0
 23 25  1  0
 22 26  1  0
 26 27  1  0
 26 28  1  0
 27 29  1  0
 25 30  1  0
 29 30  2  3
 31 32  1  0
 16 34  1  0
 33 34  1  0
  4 35  1  0
 34 35  1  0
 18 31  1  0
 32 33  1  0
  5  6  1  0
  8  9  2  0
  9 10  1  0
 10 11  2  0
 11 12  1  0
 12 13  2  0
 13  8  1  0
M  END

$$$$
