No_3783-gen_results/8p0m/2024-11-27-11-27-31/
     RDKit          3D

 14 16  0  0  0  0  0  0  0  0999 V2000
  -28.0162   -0.8135   28.8779 C   0  0  0  0  0  0  0  0  0  0  0  0
  -28.4690   -0.7850   29.8287 C   0  0  0  0  0  0  0  0  0  0  0  0
  -27.0871    0.2903   28.6377 C   0  0  0  0  0  0  0  0  0  0  0  0
  -26.8317    1.2487   29.5869 C   0  0  0  0  0  0  0  0  0  0  0  0
  -28.3914    0.0801   31.0065 C   0  0  0  0  0  0  0  0  0  0  0  0
  -27.4940    1.1521   30.7841 C   0  0  0  0  0  0  0  0  0  0  0  0
  -26.3109    0.3918   27.3640 C   0  0  0  0  0  0  0  0  0  0  0  0
  -25.3678    1.4459   27.3016 C   0  0  0  0  0  0  0  0  0  0  0  0
  -25.2143    2.4024   28.3183 C   0  0  0  0  0  0  0  0  0  0  0  0
  -25.8847    2.3204   29.4046 C   0  0  0  0  0  0  0  0  0  0  0  0
  -24.5492    1.5868   26.0144 C   0  0  0  0  0  0  0  0  0  0  0  0
  -23.4640    2.5128   26.0707 C   0  0  0  0  0  0  0  0  0  0  0  0
  -23.2973    3.3823   27.1301 C   0  0  0  0  0  0  0  0  0  0  0  0
  -24.0917    3.3812   28.1494 C   0  0  0  0  0  0  0  0  0  0  0  0
  4 10  2  0
 10  9  1  0
  8  7  1  0
  7  3  2  0
  8  9  2  0
  9 14  1  0
 14 13  2  0
 13 12  1  0
 12 11  2  0
 11  8  1  0
  1  2  2  0
  2  5  1  0
  5  6  2  0
  6  4  1  0
  4  3  1  0
  3  1  1  0
M  END

$$$$
