No_3047-gen_results/8p0m/2024-11-27-11-27-31/
     RDKit          3D

 25 26  0  0  0  0  0  0  0  0999 V2000
  -28.0162   -0.8135   28.8779 C   0  0  0  0  0  0  0  0  0  0  0  0
  -27.0636   -0.1189   28.6079 C   0  0  0  0  0  0  0  0  0  0  0  0
  -25.7923   -0.4302   29.0761 C   0  0  0  0  0  0  0  0  0  0  0  0
  -25.5756   -1.5654   29.9363 C   0  0  0  0  0  0  0  0  0  0  0  0
  -26.7354   -2.3004   30.2173 C   0  0  0  0  0  0  0  0  0  0  0  0
  -27.9184   -1.9537   29.7629 C   0  0  0  0  0  0  0  0  0  0  0  0
  -29.0001   -2.7012   30.1151 O   0  0  0  0  0  0  0  0  0  0  0  0
  -24.5290    0.3490   28.7998 C   0  0  0  0  0  0  0  0  0  0  0  0
  -23.3442    0.0060   29.1658 C   0  0  0  0  0  0  0  0  0  0  0  0
  -22.1783    0.7811   28.7783 C   0  0  0  0  0  0  0  0  0  0  0  0
  -22.3218    1.7499   27.7727 C   0  0  0  0  0  0  0  0  0  0  0  0
  -24.4393    1.2483   27.6172 C   0  0  0  0  0  0  0  0  0  0  0  0
  -23.4458    1.9563   27.2341 C   0  0  0  0  0  0  0  0  0  0  0  0
  -30.1253   -2.1334   30.5842 C   0  0  0  0  0  0  0  0  0  0  0  0
  -31.1959   -2.7158   30.1336 C   0  0  0  0  0  0  0  0  0  0  0  0
  -32.1436   -2.6913   30.6429 O   0  0  0  0  0  0  0  0  0  0  0  0
  -31.1869   -3.4020   28.9748 O   0  0  0  0  0  0  0  0  0  0  0  0
  -30.0338   -2.1987   32.0068 F   0  0  0  0  0  0  0  0  0  0  0  0
  -23.6111    3.1710   26.0109 Cl  0  0  0  0  0  0  0  0  0  0  0  0
  -30.2010   -0.8431   30.4151 F   0  0  0  0  0  0  0  0  0  0  0  0
  -32.2112   -3.9374   28.2396 C   0  0  0  0  0  0  0  0  0  0  0  0
  -32.3022   -5.3262   28.6246 C   0  0  0  0  0  0  0  0  0  0  0  0
  -32.6655   -6.0855   27.8428 O   0  0  0  0  0  0  0  0  0  0  0  0
  -31.8797   -5.8204   29.8480 N   0  0  0  0  0  0  0  0  0  0  0  0
  -31.8773   -7.2025   30.2390 C   0  0  0  0  0  0  0  0  0  0  0  0
  6  7  1  0
  3  8  1  0
  7 14  1  0
 14 15  1  0
 15 16  2  0
 15 17  1  0
 14 18  1  0
 13 19  1  0
 14 20  1  0
 17 21  1  0
 21 22  1  0
 22 23  2  0
 22 24  1  0
 24 25  1  0
  1  2  2  0
  2  3  1  0
  3  4  2  0
  4  5  1  0
  5  6  2  0
  6  1  1  0
  8  9  2  0
  9 10  1  0
 10 11  2  0
 11 13  1  0
 13 12  2  0
 12  8  1  0
M  END

$$$$
