No_3900-gen_results/8p0m/2024-11-27-11-27-31/
     RDKit          3D

 29 31  0  0  0  0  0  0  0  0999 V2000
  -28.0162   -0.8135   28.8779 C   0  0  0  0  0  0  0  0  0  0  0  0
  -27.0636   -0.1190   28.6079 C   0  0  0  0  0  0  0  0  0  0  0  0
  -27.0010    0.6913   27.4910 C   0  0  0  0  0  0  0  0  0  0  0  0
  -25.8548    1.4825   27.0830 C   0  0  0  0  0  0  0  0  0  0  0  0
  -24.6901    1.4526   27.8807 C   0  0  0  0  0  0  0  0  0  0  0  0
  -24.7379    0.6010   29.0416 C   0  0  0  0  0  0  0  0  0  0  0  0
  -25.8234   -0.1688   29.3887 C   0  0  0  0  0  0  0  0  0  0  0  0
  -28.6636   -0.5451   29.9829 O   0  0  0  0  0  0  0  0  0  0  0  0
  -23.5123    2.1944   27.5723 C   0  0  0  0  0  0  0  0  0  0  0  0
  -22.9761    2.2481   26.3046 N   0  0  0  0  0  0  0  0  0  0  0  0
  -22.6515    2.5210   28.4895 O   0  0  0  0  0  0  0  0  0  0  0  0
  -29.6300   -1.3235   30.5068 C   0  0  0  0  0  0  0  0  0  0  0  0
  -30.1268   -1.0703   31.8586 C   0  0  0  0  0  0  0  0  0  0  0  0
  -30.8835   -1.8872   32.4368 C   0  0  0  0  0  0  0  0  0  0  0  0
  -29.7901   -2.6631   30.8579 C   0  0  0  0  0  0  0  0  0  0  0  0
  -29.2342   -3.5555   29.7372 C   0  0  0  0  0  0  0  0  0  0  0  0
  -30.4012   -3.1570   31.8881 C   0  0  0  0  0  0  0  0  0  0  0  0
  -29.6503   -4.7852   29.7512 O   0  0  0  0  0  0  0  0  0  0  0  0
  -28.1406    0.7608   26.6002 C   0  0  0  0  0  0  0  0  0  0  0  0
  -27.9723    0.5738   25.4000 N   0  0  0  0  0  0  0  0  0  0  0  0
  -29.2911    0.8494   27.0579 O   0  0  0  0  0  0  0  0  0  0  0  0
  -29.0140    0.4864   24.3681 C   0  0  0  0  0  0  0  0  0  0  0  0
  -29.4678   -0.7746   24.2437 C   0  0  0  0  0  0  0  0  0  0  0  0
  -30.6790   -1.0959   24.9107 C   0  0  0  0  0  0  0  0  0  0  0  0
  -31.5720   -1.4532   24.5876 C   0  0  0  0  0  0  0  0  0  0  0  0
  -32.8051   -1.5775   25.1549 C   0  0  0  0  0  0  0  0  0  0  0  0
  -32.8578   -1.3973   26.5488 C   0  0  0  0  0  0  0  0  0  0  0  0
  -31.6546   -0.9708   27.1319 C   0  0  0  0  0  0  0  0  0  0  0  0
  -30.5879   -0.7435   26.4000 C   0  0  0  0  0  0  0  0  0  0  0  0
  1  2  1  0
  1  8  1  0
  5  9  1  0
  9 10  1  0
  9 11  2  0
  8 12  1  0
 12 13  1  0
 13 14  2  0
 12 15  1  0
 15 16  1  0
 14 17  1  0
 15 17  1  0
 16 18  2  0
  3 19  1  0
 19 20  1  0
 19 21  2  0
 20 22  1  0
 22 23  1  0
 23 24  1  0
  2  3  1  0
  3  4  2  0
  4  5  1  0
  5  6  2  0
  6  7  1  0
  7  2  2  0
 24 25  2  0
 25 26  1  0
 26 27  2  0
 27 28  1  0
 28 29  2  0
 29 24  1  0
M  END

$$$$
