No_3-gen_results/8p0m/2024-11-27-11-27-31/
     RDKit          3D

 34 38  0  0  0  0  0  0  0  0999 V2000
  -28.0162   -0.8135   28.8779 C   0  0  0  0  0  0  0  0  0  0  0  0
  -28.4690   -0.7850   29.8287 C   0  0  0  0  0  0  0  0  0  0  0  0
  -27.0871    0.2903   28.6377 C   0  0  0  0  0  0  0  0  0  0  0  0
  -26.8317    1.2487   29.5869 C   0  0  0  0  0  0  0  0  0  0  0  0
  -28.3914    0.0801   31.0065 C   0  0  0  0  0  0  0  0  0  0  0  0
  -27.4940    1.1521   30.7841 C   0  0  0  0  0  0  0  0  0  0  0  0
  -26.3109    0.3918   27.3640 C   0  0  0  0  0  0  0  0  0  0  0  0
  -26.7672    1.0252   26.3723 C   0  0  0  0  0  0  0  0  0  0  0  0
  -26.0109    1.0160   25.1236 C   0  0  0  0  0  0  0  0  0  0  0  0
  -25.0722   -0.2318   27.3154 C   0  0  0  0  0  0  0  0  0  0  0  0
  -24.5434   -0.9182   28.5813 C   0  0  0  0  0  0  0  0  0  0  0  0
  -24.9659    0.4191   25.0655 C   0  0  0  0  0  0  0  0  0  0  0  0
  -24.3600   -0.2340   26.1518 C   0  0  0  0  0  0  0  0  0  0  0  0
  -23.4661   -0.3149   29.2374 C   0  0  0  0  0  0  0  0  0  0  0  0
  -24.9472   -2.1723   28.9623 C   0  0  0  0  0  0  0  0  0  0  0  0
  -24.4188   -2.8791   30.0285 C   0  0  0  0  0  0  0  0  0  0  0  0
  -22.9077   -0.9673   30.3613 C   0  0  0  0  0  0  0  0  0  0  0  0
  -23.3901   -2.1560   30.7737 C   0  0  0  0  0  0  0  0  0  0  0  0
  -25.9430    2.3994   29.3998 C   0  0  0  0  0  0  0  0  0  0  0  0
  -25.5550    3.0525   30.4379 C   0  0  0  0  0  0  0  0  0  0  0  0
  -26.2023    2.9430   31.7200 C   0  0  0  0  0  0  0  0  0  0  0  0
  -27.1490    1.9455   31.9525 C   0  0  0  0  0  0  0  0  0  0  0  0
  -28.1240    1.7380   26.3009 C   0  0  0  0  0  0  0  0  0  0  0  0
  -29.1319    1.1661   26.0184 O   0  0  0  0  0  0  0  0  0  0  0  0
  -28.1204    2.9673   26.7790 O   0  0  0  0  0  0  0  0  0  0  0  0
  -25.7593    3.8419   32.8298 C   0  0  0  0  0  0  0  0  0  0  0  0
  -26.2014    3.7415   34.0142 N   0  0  0  0  0  0  0  0  0  0  0  0
  -25.1236    4.9371   32.4575 O   0  0  0  0  0  0  0  0  0  0  0  0
  -27.0424    2.7032   34.4727 C   0  0  0  0  0  0  0  0  0  0  0  0
  -27.5941    1.8012   33.3301 C   0  0  0  0  0  0  0  0  0  0  0  0
  -25.8554    4.7143   35.0820 C   0  0  0  0  0  0  0  0  0  0  0  0
  -29.5792   -1.9418   30.2059 C   0  0  0  0  0  0  0  0  0  0  0  0
  -30.6079   -1.9796   30.0235 O   0  0  0  0  0  0  0  0  0  0  0  0
  -29.0341   -2.8048   31.1830 O   0  0  0  0  0  0  0  0  0  0  0  0
  3  7  1  0
 10 11  1  0
  8 23  1  0
 23 24  1  0
 23 25  2  0
 21 26  1  0
 26 27  1  0
 26 28  2  0
 27 29  1  0
 22 30  1  0
 27 31  1  0
  2 32  1  0
 32 33  2  0
 32 34  1  0
 30 29  1  0
  7  8  2  0
  8  9  1  0
  9 12  2  0
 12 13  1  0
 13 10  2  0
 10  7  1  0
  6 22  1  0
 22 21  2  0
 21 20  1  0
 20 19  2  0
 19  4  1  0
 11 14  2  0
 14 17  1  0
 17 18  2  0
 18 16  1  0
 16 15  2  0
 15 11  1  0
  1  2  2  0
  2  5  1  0
  5  6  2  0
  6  4  1  0
  4  3  2  0
  3  1  1  0
M  END

$$$$
