No_3918-gen_results/8p0m/2024-11-27-11-27-31/
     RDKit          3D

 30 32  0  0  0  0  0  0  0  0999 V2000
  -28.0162   -0.8135   28.8779 C   0  0  0  0  0  0  0  0  0  0  0  0
  -27.0636   -0.1189   28.6079 C   0  0  0  0  0  0  0  0  0  0  0  0
  -25.7647   -0.3897   29.0360 C   0  0  0  0  0  0  0  0  0  0  0  0
  -24.5516    0.4058   28.7646 C   0  0  0  0  0  0  0  0  0  0  0  0
  -23.2300    0.1178   29.2575 C   0  0  0  0  0  0  0  0  0  0  0  0
  -23.0942   -1.1309   29.8730 C   0  0  0  0  0  0  0  0  0  0  0  0
  -27.7980   -1.9341   29.8560 C   0  0  0  0  0  0  0  0  0  0  0  0
  -26.5420   -2.3269   30.2580 C   0  0  0  0  0  0  0  0  0  0  0  0
  -25.4514   -1.5516   29.9079 C   0  0  0  0  0  0  0  0  0  0  0  0
  -24.1562   -1.9097   30.2809 C   0  0  0  0  0  0  0  0  0  0  0  0
  -24.6450    1.6582   27.9464 C   0  0  0  0  0  0  0  0  0  0  0  0
  -23.7170    1.8151   26.9240 C   0  0  0  0  0  0  0  0  0  0  0  0
  -23.8494    2.9520   26.0914 C   0  0  0  0  0  0  0  0  0  0  0  0
  -24.4791    2.9567   28.7721 C   0  0  0  0  0  0  0  0  0  0  0  0
  -25.6167    3.7981   28.5881 C   0  0  0  0  0  0  0  0  0  0  0  0
  -25.3144    4.8177   27.4482 C   0  0  0  0  0  0  0  0  0  0  0  0
  -24.9913    4.1247   26.1423 C   0  0  0  0  0  0  0  0  0  0  0  0
  -25.8622    4.6952   29.6769 O   0  0  0  0  0  0  0  0  0  0  0  0
  -26.7171    4.2469   30.5944 C   0  0  0  0  0  0  0  0  0  0  0  0
  -26.3779    4.1834   31.8114 C   0  0  0  0  0  0  0  0  0  0  0  0
  -25.4405    4.9885   32.3389 C   0  0  0  0  0  0  0  0  0  0  0  0
  -26.8883    3.1274   32.7518 C   0  0  0  0  0  0  0  0  0  0  0  0
  -25.3355    5.5682   33.1976 C   0  0  0  0  0  0  0  0  0  0  0  0
  -24.2998    6.6073   33.5597 C   0  0  0  0  0  0  0  0  0  0  0  0
  -23.2035    6.6613   32.6809 C   0  0  0  0  0  0  0  0  0  0  0  0
  -22.2671    7.7189   32.9317 C   0  0  0  0  0  0  0  0  0  0  0  0
  -21.2506    7.9332   31.9482 C   0  0  0  0  0  0  0  0  0  0  0  0
  -27.2568    3.5947   33.9859 C   0  0  0  0  0  0  0  0  0  0  0  0
  -28.0704    2.5718   34.7126 C   0  0  0  0  0  0  0  0  0  0  0  0
  -28.4842    1.5556   34.8082 Cl  0  0  0  0  0  0  0  0  0  0  0  0
  4 11  1  0
 11 12  2  0
 12 13  1  0
 11 14  1  0
 14 15  1  0
 15 16  1  0
 13 17  1  0
 16 17  1  0
 15 18  1  0
 18 19  1  0
 19 20  1  0
 20 21  2  3
 20 22  1  0
 21 23  1  0
 23 24  2  3
 24 25  1  0
 25 26  2  3
 26 27  1  0
 22 28  2  3
 28 29  1  0
 29 30  1  0
  1  2  2  0
  2  3  1  0
  9  8  1  0
  8  7  2  0
  7  1  1  0
  3  4  2  0
  4  5  1  0
  5  6  2  0
  6 10  1  0
 10  9  2  0
  9  3  1  0
M  END

$$$$
