No_3570-gen_results/8p0m/2024-11-27-11-27-31/
     RDKit          3D

 19 20  0  0  0  0  0  0  0  0999 V2000
  -28.0162   -0.8135   28.8779 C   0  0  0  0  0  0  0  0  0  0  0  0
  -27.0636   -0.1189   28.6079 C   0  0  0  0  0  0  0  0  0  0  0  0
  -25.7647   -0.3897   29.0360 C   0  0  0  0  0  0  0  0  0  0  0  0
  -24.5516    0.4058   28.7646 C   0  0  0  0  0  0  0  0  0  0  0  0
  -24.6957    1.4480   27.7988 C   0  0  0  0  0  0  0  0  0  0  0  0
  -25.9755    1.7250   27.3077 C   0  0  0  0  0  0  0  0  0  0  0  0
  -27.0718    1.0134   27.6535 C   0  0  0  0  0  0  0  0  0  0  0  0
  -28.6178   -0.4695   30.2207 C   0  0  0  0  0  0  0  0  0  0  0  0
  -29.6528   -1.2461   30.6989 N   0  0  0  0  0  0  0  0  0  0  0  0
  -23.4871    2.1870   27.4841 C   0  0  0  0  0  0  0  0  0  0  0  0
  -22.2996    1.7286   27.8415 N   0  0  0  0  0  0  0  0  0  0  0  0
  -23.5718    3.3139   26.9210 O   0  0  0  0  0  0  0  0  0  0  0  0
  -29.6034   -1.9782   31.6768 C   0  0  0  0  0  0  0  0  0  0  0  0
  -30.9140   -1.1674   30.0370 C   0  0  0  0  0  0  0  0  0  0  0  0
  -31.7627   -2.1818   30.1259 C   0  0  0  0  0  0  0  0  0  0  0  0
  -30.4712   -3.1204   31.9379 C   0  0  0  0  0  0  0  0  0  0  0  0
  -31.6838   -3.0508   31.2615 C   0  0  0  0  0  0  0  0  0  0  0  0
  -28.0750    0.3495   30.9679 O   0  0  0  0  0  0  0  0  0  0  0  0
  -22.0409    0.7162   28.5977 O   0  0  0  0  0  0  0  0  0  0  0  0
  1  8  1  0
  8  9  1  0
  5 10  1  0
 10 11  1  0
 10 12  2  0
  9 13  1  0
  9 14  1  0
 15 17  1  0
 16 17  1  0
  8 18  2  0
 11 19  2  0
  1  2  1  0
 13 16  1  0
 15 14  1  0
  2  3  2  0
  3  4  1  0
  4  5  2  0
  5  6  1  0
  6  7  2  0
  7  2  1  0
M  END

$$$$
