No_3521-gen_results/8p0m/2024-11-27-11-27-31/
     RDKit          3D

 22 23  0  0  0  0  0  0  0  0999 V2000
  -28.0162   -0.8135   28.8779 C   0  0  0  0  0  0  0  0  0  0  0  0
  -28.4690   -0.7850   29.8287 C   0  0  0  0  0  0  0  0  0  0  0  0
  -26.5042   -0.7777   28.8766 C   0  0  0  0  0  0  0  0  0  0  0  0
  -25.8103   -0.8531   30.1028 C   0  0  0  0  0  0  0  0  0  0  0  0
  -27.9906   -0.8916   31.2257 C   0  0  0  0  0  0  0  0  0  0  0  0
  -26.6042   -0.8676   31.2652 C   0  0  0  0  0  0  0  0  0  0  0  0
  -24.4452   -0.9530   30.3506 C   0  0  0  0  0  0  0  0  0  0  0  0
  -23.6345    0.2297   30.2843 C   0  0  0  0  0  0  0  0  0  0  0  0
  -22.3635    0.2642   29.7722 C   0  0  0  0  0  0  0  0  0  0  0  0
  -21.8447   -0.9497   29.3014 C   0  0  0  0  0  0  0  0  0  0  0  0
  -23.7085   -1.9252   29.3672 C   0  0  0  0  0  0  0  0  0  0  0  0
  -22.4278   -1.9666   29.1633 N   0  0  0  0  0  0  0  0  0  0  0  0
  -24.0706   -1.6177   31.7766 C   0  0  0  0  0  0  0  0  0  0  0  0
  -24.4556   -2.9477   28.8905 N   0  0  0  0  0  0  0  0  0  0  0  0
  -30.0948   -0.8096   29.8393 C   0  0  0  0  0  0  0  0  0  0  0  0
  -30.7253   -0.0698   30.7141 O   0  0  0  0  0  0  0  0  0  0  0  0
  -30.6652   -1.1254   28.8034 O   0  0  0  0  0  0  0  0  0  0  0  0
  -24.1422    1.5045   31.0068 C   0  0  0  0  0  0  0  0  0  0  0  0
  -24.4488    1.6427   32.0757 O   0  0  0  0  0  0  0  0  0  0  0  0
  -24.3914    2.5469   30.0923 O   0  0  0  0  0  0  0  0  0  0  0  0
  -25.4258    3.3575   30.2724 C   0  0  0  0  0  0  0  0  0  0  0  0
  -25.8023    3.6202   31.3219 C   0  0  0  0  0  0  0  0  0  0  0  0
  4  7  1  0
  7  8  1  0
  9 10  1  0
  7 11  1  0
 11 12  1  0
  7 13  1  0
 11 14  1  0
  2 15  1  0
 15 16  2  0
 15 17  1  0
  8 18  1  0
 18 19  2  0
 18 20  1  0
 20 21  1  0
 21 22  1  0
  8  9  1  0
 10 12  1  0
  1  2  2  0
  2  5  1  0
  5  6  2  0
  6  4  1  0
  4  3  2  0
  3  1  1  0
M  END

$$$$
