No_336-gen_results/8p0m/2024-11-27-11-27-31/
     RDKit          3D

 14 15  0  0  0  0  0  0  0  0999 V2000
  -28.0162   -0.8135   28.8779 C   0  0  0  0  0  0  0  0  0  0  0  0
  -27.0636   -0.1190   28.6079 C   0  0  0  0  0  0  0  0  0  0  0  0
  -25.7923   -0.4302   29.0761 C   0  0  0  0  0  0  0  0  0  0  0  0
  -25.5756   -1.5654   29.9363 C   0  0  0  0  0  0  0  0  0  0  0  0
  -26.7354   -2.3004   30.2173 C   0  0  0  0  0  0  0  0  0  0  0  0
  -27.9184   -1.9537   29.7629 C   0  0  0  0  0  0  0  0  0  0  0  0
  -26.8648    1.0550   27.7928 N   0  0  0  0  0  0  0  0  0  0  0  0
  -27.6916    1.5642   27.1523 C   0  0  0  0  0  0  0  0  0  0  0  0
  -28.8670    1.2509   27.1496 C   0  0  0  0  0  0  0  0  0  0  0  0
  -29.8528    1.9318   26.2413 C   0  0  0  0  0  0  0  0  0  0  0  0
  -29.3101    2.9398   25.4222 C   0  0  0  0  0  0  0  0  0  0  0  0
  -27.9711    3.3165   25.4079 C   0  0  0  0  0  0  0  0  0  0  0  0
  -27.1395    2.6728   26.2403 C   0  0  0  0  0  0  0  0  0  0  0  0
  -25.3063    0.8986   27.6698 C   0  0  0  0  0  0  0  0  0  0  0  0
  2  7  1  0
  7  8  1  0
  7 14  1  0
  1  2  2  0
  2  3  1  0
  3  4  2  0
  4  5  1  0
  5  6  2  0
  6  1  1  0
  8  9  2  0
  9 10  1  0
 10 11  2  0
 11 12  1  0
 12 13  2  0
 13  8  1  0
M  END

$$$$
