No_3073-gen_results/8p0m/2024-11-27-11-27-31/
     RDKit          3D

 20 22  0  0  0  0  0  0  0  0999 V2000
  -28.0162   -0.8135   28.8779 C   0  0  0  0  0  0  0  0  0  0  0  0
  -27.0636   -0.1190   28.6079 C   0  0  0  0  0  0  0  0  0  0  0  0
  -26.8756    1.1325   28.9134 C   0  0  0  0  0  0  0  0  0  0  0  0
  -27.9014    1.8066   29.6436 C   0  0  0  0  0  0  0  0  0  0  0  0
  -29.0458   -0.2316   29.7181 C   0  0  0  0  0  0  0  0  0  0  0  0
  -28.9402    1.0517   30.0597 C   0  0  0  0  0  0  0  0  0  0  0  0
  -30.1632   -1.1170   30.1252 C   0  0  0  0  0  0  0  0  0  0  0  0
  -31.2136   -1.0695   29.5726 N   0  0  0  0  0  0  0  0  0  0  0  0
  -31.5027   -0.2503   28.6746 C   0  0  0  0  0  0  0  0  0  0  0  0
  -32.8325   -0.4182   27.9677 C   0  0  0  0  0  0  0  0  0  0  0  0
  -32.0354   -2.2867   29.3951 C   0  0  0  0  0  0  0  0  0  0  0  0
  -31.6996   -3.3944   30.3264 C   0  0  0  0  0  0  0  0  0  0  0  0
  -32.3055   -4.5032   30.2241 C   0  0  0  0  0  0  0  0  0  0  0  0
  -33.0797   -1.8427   28.7435 C   0  0  0  0  0  0  0  0  0  0  0  0
  -30.5181   -3.3544   31.1582 C   0  0  0  0  0  0  0  0  0  0  0  0
  -29.4507   -2.4171   30.6547 C   0  0  0  0  0  0  0  0  0  0  0  0
  -32.9685   -4.9515   29.3513 C   0  0  0  0  0  0  0  0  0  0  0  0
  -33.6229   -6.2580   29.2520 C   0  0  0  0  0  0  0  0  0  0  0  0
  -33.3069   -7.0813   30.2572 C   0  0  0  0  0  0  0  0  0  0  0  0
  -32.5085   -6.7488   31.3090 C   0  0  0  0  0  0  0  0  0  0  0  0
  5  7  1  0
  7  8  1  0
  8  9  1  0
  9 10  2  0
  8 11  1  0
 11 12  1  0
 12 13  2  3
 10 14  1  0
 11 14  1  0
 12 15  1  0
  7 16  1  0
 15 16  1  0
 13 17  1  0
 17 18  1  0
 18 19  2  3
 19 20  1  0
  1  2  2  0
  2  3  1  0
  3  4  2  0
  4  6  1  0
  6  5  2  0
  5  1  1  0
M  END

$$$$
