No_3119-gen_results/8p0m/2024-11-27-11-27-31/
     RDKit          3D

 24 26  0  0  0  0  0  0  0  0999 V2000
  -28.0162   -0.8135   28.8779 C   0  0  0  0  0  0  0  0  0  0  0  0
  -27.0636   -0.1189   28.6079 C   0  0  0  0  0  0  0  0  0  0  0  0
  -25.8176   -0.3427   29.0488 N   0  0  0  0  0  0  0  0  0  0  0  0
  -24.6757    0.3814   28.7496 C   0  0  0  0  0  0  0  0  0  0  0  0
  -24.0757    1.1905   29.4760 C   0  0  0  0  0  0  0  0  0  0  0  0
  -22.8927    1.8970   29.0167 C   0  0  0  0  0  0  0  0  0  0  0  0
  -22.3660    1.6048   27.6968 C   0  0  0  0  0  0  0  0  0  0  0  0
  -23.1202    0.7515   26.9508 C   0  0  0  0  0  0  0  0  0  0  0  0
  -24.2144    0.1648   27.3843 C   0  0  0  0  0  0  0  0  0  0  0  0
  -27.8751   -1.6748   30.0582 C   0  0  0  0  0  0  0  0  0  0  0  0
  -26.6528   -2.0856   30.5181 C   0  0  0  0  0  0  0  0  0  0  0  0
  -25.5270   -1.3567   30.0605 C   0  0  0  0  0  0  0  0  0  0  0  0
  -27.0917    0.7190   27.5953 F   0  0  0  0  0  0  0  0  0  0  0  0
  -24.4073   -1.5624   30.5245 O   0  0  0  0  0  0  0  0  0  0  0  0
  -29.0977   -2.4751   30.5158 C   0  0  0  0  0  0  0  0  0  0  0  0
  -29.0748   -3.6588   30.4349 O   0  0  0  0  0  0  0  0  0  0  0  0
  -29.9077   -1.8168   31.3269 N   0  0  0  0  0  0  0  0  0  0  0  0
  -31.0515   -2.5320   31.9692 C   0  0  0  0  0  0  0  0  0  0  0  0
  -29.9313   -0.3929   31.5342 C   0  0  0  0  0  0  0  0  0  0  0  0
  -31.0725    0.2294   31.1707 C   0  0  0  0  0  0  0  0  0  0  0  0
  -31.1848    1.4593   31.5633 C   0  0  0  0  0  0  0  0  0  0  0  0
  -30.1089    2.2262   32.1454 C   0  0  0  0  0  0  0  0  0  0  0  0
  -28.9441    1.4834   32.5015 C   0  0  0  0  0  0  0  0  0  0  0  0
  -28.8976    0.2270   32.2793 C   0  0  0  0  0  0  0  0  0  0  0  0
  1  2  1  0
  2  3  1  0
  3  4  1  0
  1 10  1  0
  3 12  1  0
 11 12  1  0
  2 13  1  0
 12 14  2  0
 10 15  1  0
 15 16  2  0
 15 17  1  0
 17 18  1  0
 17 19  1  0
 10 11  1  0
 19 20  2  0
 20 21  1  0
 21 22  2  0
 22 23  1  0
 23 24  2  0
 24 19  1  0
  4  5  2  0
  5  6  1  0
  6  7  2  0
  7  8  1  0
  8  9  2  0
  9  4  1  0
M  END

$$$$
