No_3787-gen_results/8p0m/2024-11-27-11-27-31/
     RDKit          3D

 16 16  0  0  0  0  0  0  0  0999 V2000
  -28.0162   -0.8135   28.8779 C   0  0  0  0  0  0  0  0  0  0  0  0
  -27.0636   -0.1189   28.6079 C   0  0  0  0  0  0  0  0  0  0  0  0
  -25.8837   -0.5253   28.7835 F   0  0  0  0  0  0  0  0  0  0  0  0
  -27.1010    1.1562   27.8909 C   0  0  0  0  0  0  0  0  0  0  0  0
  -27.8551   -1.7809   29.9423 C   0  0  0  0  0  0  0  0  0  0  0  0
  -26.1207    1.4769   27.0006 C   0  0  0  0  0  0  0  0  0  0  0  0
  -28.7722   -2.3155   30.5526 O   0  0  0  0  0  0  0  0  0  0  0  0
  -26.6722   -1.9629   30.5059 O   0  0  0  0  0  0  0  0  0  0  0  0
  -26.2656    1.9358   25.8265 C   0  0  0  0  0  0  0  0  0  0  0  0
  -24.7065    1.3662   27.4173 C   0  0  0  0  0  0  0  0  0  0  0  0
  -23.8991    1.9656   27.0144 C   0  0  0  0  0  0  0  0  0  0  0  0
  -22.4309    1.8371   27.4910 C   0  0  0  0  0  0  0  0  0  0  0  0
  -22.2732    0.9387   28.5665 C   0  0  0  0  0  0  0  0  0  0  0  0
  -23.3094    0.1760   28.9892 C   0  0  0  0  0  0  0  0  0  0  0  0
  -24.4850    0.3737   28.4898 C   0  0  0  0  0  0  0  0  0  0  0  0
  -25.4624    0.6843   28.8932 F   0  0  0  0  0  0  0  0  0  0  0  0
  1  2  1  0
  2  3  1  0
  2  4  1  0
  1  5  1  0
  4  6  1  0
  5  7  2  0
  5  8  1  0
  6  9  2  0
  6 10  1  0
 15 16  1  0
 10 11  2  0
 11 12  1  0
 12 13  2  0
 13 14  1  0
 14 15  2  0
 15 10  1  0
M  END

$$$$
