No_3411-gen_results/8p0m/2024-11-27-11-27-31/
     RDKit          3D

 14 15  0  0  0  0  0  0  0  0999 V2000
  -28.1229   -1.3353   28.4874 O   0  0  0  0  0  0  0  0  0  0  0  0
  -27.0637   -0.8242   28.8687 C   0  0  0  0  0  0  0  0  0  0  0  0
  -25.9464   -1.0396   28.8492 C   0  0  0  0  0  0  0  0  0  0  0  0
  -24.7602   -0.1562   29.1644 C   0  0  0  0  0  0  0  0  0  0  0  0
  -25.0917    1.0791   29.6491 C   0  0  0  0  0  0  0  0  0  0  0  0
  -26.4090    1.4383   29.7067 C   0  0  0  0  0  0  0  0  0  0  0  0
  -27.3694    0.6586   29.4148 C   0  0  0  0  0  0  0  0  0  0  0  0
  -23.1391   -0.6368   29.1158 Cl  0  0  0  0  0  0  0  0  0  0  0  0
  -26.6338    2.8609   30.2161 C   0  0  0  0  0  0  0  0  0  0  0  0
  -26.5300    3.3109   31.2410 C   0  0  0  0  0  0  0  0  0  0  0  0
  -26.7296    4.7144   31.7168 C   0  0  0  0  0  0  0  0  0  0  0  0
  -27.0887    5.6102   30.7305 C   0  0  0  0  0  0  0  0  0  0  0  0
  -27.0272    3.9308   29.2084 C   0  0  0  0  0  0  0  0  0  0  0  0
  -27.1818    5.2050   29.4678 C   0  0  0  0  0  0  0  0  0  0  0  0
  1  2  2  0
  2  3  1  0
  3  4  1  0
  4  5  1  0
  5  6  1  0
  2  7  1  0
  6  7  1  0
  4  8  1  0
  6  9  1  0
  9 10  2  0
 10 11  1  0
 11 12  2  0
 12 14  1  0
 14 13  2  0
 13  9  1  0
M  END

$$$$
