No_3109-gen_results/8p0m/2024-11-27-11-27-31/
     RDKit          3D

 28 31  0  0  0  0  0  0  0  0999 V2000
  -28.0162   -0.8135   28.8779 C   0  0  0  0  0  0  0  0  0  0  0  0
  -27.0636   -0.1189   28.6079 C   0  0  0  0  0  0  0  0  0  0  0  0
  -25.7923   -0.4302   29.0761 C   0  0  0  0  0  0  0  0  0  0  0  0
  -25.5756   -1.5654   29.9363 C   0  0  0  0  0  0  0  0  0  0  0  0
  -26.7354   -2.3004   30.2173 C   0  0  0  0  0  0  0  0  0  0  0  0
  -27.9184   -1.9537   29.7629 C   0  0  0  0  0  0  0  0  0  0  0  0
  -27.1057    1.1023   27.7593 C   0  0  0  0  0  0  0  0  0  0  0  0
  -26.7157    2.2350   27.9945 C   0  0  0  0  0  0  0  0  0  0  0  0
  -26.6929    3.3459   27.0337 C   0  0  0  0  0  0  0  0  0  0  0  0
  -27.1962    3.0779   25.7437 C   0  0  0  0  0  0  0  0  0  0  0  0
  -27.5814    0.8882   26.3714 C   0  0  0  0  0  0  0  0  0  0  0  0
  -27.6131    1.8443   25.4645 C   0  0  0  0  0  0  0  0  0  0  0  0
  -29.0590   -2.7811   30.2183 C   0  0  0  0  0  0  0  0  0  0  0  0
  -28.9490   -4.0553   30.5422 N   0  0  0  0  0  0  0  0  0  0  0  0
  -30.2124   -2.2822   30.2021 O   0  0  0  0  0  0  0  0  0  0  0  0
  -30.0490   -4.9462   30.8656 C   0  0  0  0  0  0  0  0  0  0  0  0
  -30.8510   -5.2569   29.8358 C   0  0  0  0  0  0  0  0  0  0  0  0
  -31.5293   -6.4229   29.8946 C   0  0  0  0  0  0  0  0  0  0  0  0
  -31.5305   -7.2270   31.0891 C   0  0  0  0  0  0  0  0  0  0  0  0
  -30.6775   -6.8536   32.1390 C   0  0  0  0  0  0  0  0  0  0  0  0
  -29.9447   -5.3546   32.2137 C   0  0  0  0  0  0  0  0  0  0  0  0
  -28.0626    1.5922   24.2383 F   0  0  0  0  0  0  0  0  0  0  0  0
  -26.1551    4.6837   27.4358 C   0  0  0  0  0  0  0  0  0  0  0  0
  -26.6951    5.4200   28.3010 C   0  0  0  0  0  0  0  0  0  0  0  0
  -26.1009    6.6432   28.6954 C   0  0  0  0  0  0  0  0  0  0  0  0
  -24.9227    7.0885   28.0067 C   0  0  0  0  0  0  0  0  0  0  0  0
  -24.3864    6.3116   26.9890 C   0  0  0  0  0  0  0  0  0  0  0  0
  -24.9575    5.0682   26.6836 C   0  0  0  0  0  0  0  0  0  0  0  0
  2  7  1  0
  6 13  1  0
 13 14  1  0
 13 15  2  0
 14 16  1  0
 12 22  1  0
  9 23  1  0
  7  8  2  0
  8  9  1  0
  9 10  2  0
 10 12  1  0
 12 11  2  0
 11  7  1  0
  1  2  2  0
  2  3  1  0
  3  4  2  0
  4  5  1  0
  5  6  2  0
  6  1  1  0
 23 24  2  0
 24 25  1  0
 25 26  2  0
 26 27  1  0
 27 28  2  0
 28 23  1  0
 16 17  2  0
 17 18  1  0
 18 19  2  0
 19 20  1  0
 20 21  2  0
 21 16  1  0
M  END

$$$$
