No_312-gen_results/8p0m/2024-11-27-11-27-31/
     RDKit          3D

 23 26  0  0  0  0  0  0  0  0999 V2000
  -28.0162   -0.8135   28.8779 C   0  0  0  0  0  0  0  0  0  0  0  0
  -27.0636   -0.1190   28.6079 C   0  0  0  0  0  0  0  0  0  0  0  0
  -26.9716    0.7139   27.5060 C   0  0  0  0  0  0  0  0  0  0  0  0
  -28.1053    0.7744   26.6421 C   0  0  0  0  0  0  0  0  0  0  0  0
  -29.2041    0.1179   27.0477 C   0  0  0  0  0  0  0  0  0  0  0  0
  -29.2127   -0.6088   28.1281 C   0  0  0  0  0  0  0  0  0  0  0  0
  -25.7992    1.4100   27.1551 N   0  0  0  0  0  0  0  0  0  0  0  0
  -24.6487    1.1359   27.7450 C   0  0  0  0  0  0  0  0  0  0  0  0
  -24.2636    0.1587   28.4692 C   0  0  0  0  0  0  0  0  0  0  0  0
  -23.0051   -0.0889   29.0877 C   0  0  0  0  0  0  0  0  0  0  0  0
  -22.0297    0.7359   28.5878 C   0  0  0  0  0  0  0  0  0  0  0  0
  -23.4158    1.9156   27.3121 C   0  0  0  0  0  0  0  0  0  0  0  0
  -22.1643    1.7326   27.7164 C   0  0  0  0  0  0  0  0  0  0  0  0
  -25.6240   -0.4162   29.2772 C   0  0  0  0  0  0  0  0  0  0  0  0
  -25.3689   -1.9264   29.4849 C   0  0  0  0  0  0  0  0  0  0  0  0
  -25.7232    0.2225   30.7298 C   0  0  0  0  0  0  0  0  0  0  0  0
  -25.8564    1.3733   30.9812 C   0  0  0  0  0  0  0  0  0  0  0  0
  -26.1361    2.4435   30.2181 C   0  0  0  0  0  0  0  0  0  0  0  0
  -26.3663    3.7300   30.7076 C   0  0  0  0  0  0  0  0  0  0  0  0
  -26.1357    4.0270   32.0116 C   0  0  0  0  0  0  0  0  0  0  0  0
  -25.8699    2.9939   32.9398 C   0  0  0  0  0  0  0  0  0  0  0  0
  -25.6885    1.7174   32.4386 C   0  0  0  0  0  0  0  0  0  0  0  0
  -25.6254   -0.7490   31.6640 O   0  0  0  0  0  0  0  0  0  0  0  0
  3  7  1  0
  7  8  1  0
  2 14  1  0
  9 14  1  0
 14 15  1  0
 14 16  1  0
 16 17  1  0
 16 23  2  0
 17 18  2  0
 18 19  1  0
 19 20  2  0
 20 21  1  0
 21 22  2  0
 22 17  1  0
  1  2  2  0
  2  3  1  0
  3  4  2  0
  4  5  1  0
  5  6  2  0
  6  1  1  0
  8 12  2  0
 12 13  1  0
 13 11  2  0
 11 10  1  0
 10  9  2  0
  9  8  1  0
M  END

$$$$
