No_3721-gen_results/8p0m/2024-11-27-11-27-31/
     RDKit          3D

 11 11  0  0  0  0  0  0  0  0999 V2000
  -28.1229   -1.3353   28.4874 O   0  0  0  0  0  0  0  0  0  0  0  0
  -27.4806   -0.4044   28.7094 C   0  0  0  0  0  0  0  0  0  0  0  0
  -26.4599   -0.1104   28.0051 N   0  0  0  0  0  0  0  0  0  0  0  0
  -25.4297    0.8788   28.3572 C   0  0  0  0  0  0  0  0  0  0  0  0
  -25.6985    1.5873   29.3706 C   0  0  0  0  0  0  0  0  0  0  0  0
  -27.7528    0.2412   29.9527 N   0  0  0  0  0  0  0  0  0  0  0  0
  -26.7835    1.2578   30.3212 C   0  0  0  0  0  0  0  0  0  0  0  0
  -24.2149    1.2333   27.3163 Cl  0  0  0  0  0  0  0  0  0  0  0  0
  -24.7653    2.6750   29.8128 C   0  0  0  0  0  0  0  0  0  0  0  0
  -24.9737    3.3136   30.7646 O   0  0  0  0  0  0  0  0  0  0  0  0
  -23.8521    3.0797   28.9415 O   0  0  0  0  0  0  0  0  0  0  0  0
  1  2  2  0
  2  3  1  0
  3  4  1  0
  4  5  1  0
  2  6  1  0
  5  7  1  0
  4  8  1  0
  5  9  1  0
  9 10  1  0
  9 11  2  0
  7  6  1  0
M  END

$$$$
