No_3386-gen_results/8p0m/2024-11-27-11-27-31/
     RDKit          3D

 14 15  0  0  0  0  0  0  0  0999 V2000
  -28.0162   -0.8135   28.8779 C   0  0  0  0  0  0  0  0  0  0  0  0
  -27.0636   -0.1189   28.6079 C   0  0  0  0  0  0  0  0  0  0  0  0
  -25.7923   -0.4302   29.0761 C   0  0  0  0  0  0  0  0  0  0  0  0
  -24.5456    0.3494   28.8225 C   0  0  0  0  0  0  0  0  0  0  0  0
  -24.6586    1.4196   27.8878 C   0  0  0  0  0  0  0  0  0  0  0  0
  -25.9471    1.6811   27.3792 C   0  0  0  0  0  0  0  0  0  0  0  0
  -27.0439    0.9739   27.6871 C   0  0  0  0  0  0  0  0  0  0  0  0
  -28.0485   -1.5981   30.1629 C   0  0  0  0  0  0  0  0  0  0  0  0
  -29.2076   -2.3399   30.5171 C   0  0  0  0  0  0  0  0  0  0  0  0
  -29.0495   -3.4874   31.1856 C   0  0  0  0  0  0  0  0  0  0  0  0
  -30.2246   -4.0798   31.6520 C   0  0  0  0  0  0  0  0  0  0  0  0
  -31.4807   -3.5699   31.3468 C   0  0  0  0  0  0  0  0  0  0  0  0
  -31.5690   -2.4188   30.6826 C   0  0  0  0  0  0  0  0  0  0  0  0
  -30.4198   -1.7384   30.2982 C   0  0  0  0  0  0  0  0  0  0  0  0
  1  2  1  0
  1  8  2  3
  8  9  1  0
  2  3  2  0
  3  4  1  0
  4  5  2  0
  5  6  1  0
  6  7  2  0
  7  2  1  0
  9 10  2  0
 10 11  1  0
 11 12  2  0
 12 13  1  0
 13 14  2  0
 14  9  1  0
M  END

$$$$
