No_3894-gen_results/8p0m/2024-11-27-11-27-31/
     RDKit          3D

 22 22  0  0  0  0  0  0  0  0999 V2000
  -28.0162   -0.8135   28.8779 C   0  0  0  0  0  0  0  0  0  0  0  0
  -27.0636   -0.1189   28.6079 C   0  0  0  0  0  0  0  0  0  0  0  0
  -26.9716    0.7139   27.5060 C   0  0  0  0  0  0  0  0  0  0  0  0
  -28.1053    0.7744   26.6421 C   0  0  0  0  0  0  0  0  0  0  0  0
  -29.2041    0.1179   27.0477 C   0  0  0  0  0  0  0  0  0  0  0  0
  -29.2127   -0.6088   28.1281 C   0  0  0  0  0  0  0  0  0  0  0  0
  -25.3933    1.6614   27.0324 Br  0  0  0  0  0  0  0  0  0  0  0  0
  -30.3667    0.2317   26.1437 C   0  0  0  0  0  0  0  0  0  0  0  0
  -31.1340    1.3454   25.9505 P   0  0  0  0  0  0  0  0  0  0  0  0
  -31.6854    1.5587   24.6711 O   0  0  0  0  0  0  0  0  0  0  0  0
  -30.1966    2.6396   26.1134 O   0  0  0  0  0  0  0  0  0  0  0  0
  -32.2055    1.5304   27.0351 O   0  0  0  0  0  0  0  0  0  0  0  0
  -28.0753   -1.6315   30.1580 C   0  0  0  0  0  0  0  0  0  0  0  0
  -28.5825   -1.4156   31.1826 N   0  0  0  0  0  0  0  0  0  0  0  0
  -27.3930   -2.7749   30.0098 O   0  0  0  0  0  0  0  0  0  0  0  0
  -28.6480   -2.3546   32.3473 C   0  0  0  0  0  0  0  0  0  0  0  0
  -29.3028   -0.1050   31.4600 C   0  0  0  0  0  0  0  0  0  0  0  0
  -30.6679   -0.0899   31.2152 C   0  0  0  0  0  0  0  0  0  0  0  0
  -31.4831   -0.8834   31.5204 C   0  0  0  0  0  0  0  0  0  0  0  0
  -32.9166   -0.7754   31.1155 C   0  0  0  0  0  0  0  0  0  0  0  0
  -33.2573    0.3945   30.4140 C   0  0  0  0  0  0  0  0  0  0  0  0
  -32.3328    1.3652   30.1281 C   0  0  0  0  0  0  0  0  0  0  0  0
  3  7  1  0
  5  8  1  0
  8  9  1  0
  9 10  2  0
  9 11  1  0
  9 12  1  0
  1 13  1  0
 13 14  1  0
 13 15  2  0
 14 16  1  0
 14 17  1  0
 17 18  2  3
 18 19  1  0
 19 20  2  3
 20 21  1  0
 21 22  2  0
  1  2  2  0
  2  3  1  0
  3  4  2  0
  4  5  1  0
  5  6  2  0
  6  1  1  0
M  END

$$$$
