No_3062-gen_results/8p0m/2024-11-27-11-27-31/
     RDKit          3D

 20 21  0  0  0  0  0  0  0  0999 V2000
  -28.0162   -0.8135   28.8779 C   0  0  0  0  0  0  0  0  0  0  0  0
  -28.4690   -0.7850   29.8287 C   0  0  0  0  0  0  0  0  0  0  0  0
  -26.5042   -0.7777   28.8766 C   0  0  0  0  0  0  0  0  0  0  0  0
  -25.8103   -0.8531   30.1028 C   0  0  0  0  0  0  0  0  0  0  0  0
  -27.9906   -0.8916   31.2257 C   0  0  0  0  0  0  0  0  0  0  0  0
  -26.6042   -0.8676   31.2652 C   0  0  0  0  0  0  0  0  0  0  0  0
  -29.9765   -0.8288   29.8497 N   0  0  0  0  0  0  0  0  0  0  0  0
  -30.5795   -0.1232   28.9820 C   0  0  0  0  0  0  0  0  0  0  0  0
  -30.0432    0.5770   28.2959 O   0  0  0  0  0  0  0  0  0  0  0  0
  -32.0822   -0.3796   28.9957 C   0  0  0  0  0  0  0  0  0  0  0  0
  -32.5933   -1.3349   29.0112 O   0  0  0  0  0  0  0  0  0  0  0  0
  -32.8320    0.8366   28.8850 N   0  0  0  0  0  0  0  0  0  0  0  0
  -34.2224    0.7993   28.8582 C   0  0  0  0  0  0  0  0  0  0  0  0
  -34.9301    0.3429   29.7396 C   0  0  0  0  0  0  0  0  0  0  0  0
  -34.5983    0.5137   31.0462 C   0  0  0  0  0  0  0  0  0  0  0  0
  -34.2708    1.8315   31.4741 C   0  0  0  0  0  0  0  0  0  0  0  0
  -33.7750    2.0158   32.7923 C   0  0  0  0  0  0  0  0  0  0  0  0
  -34.6462   -0.4614   32.1226 C   0  0  0  0  0  0  0  0  0  0  0  0
  -34.2349   -0.2296   33.4241 C   0  0  0  0  0  0  0  0  0  0  0  0
  -33.8118    1.0836   33.7833 C   0  0  0  0  0  0  0  0  0  0  0  0
  2  7  1  0
  7  8  1  0
  8  9  2  0
  8 10  1  0
 10 11  2  0
 10 12  1  0
 12 13  1  0
 13 14  1  0
 14 15  1  0
 15 16  2  0
 16 17  1  0
 17 20  2  0
 20 19  1  0
 19 18  2  0
 18 15  1  0
  1  2  2  0
  2  5  1  0
  5  6  2  0
  6  4  1  0
  4  3  2  0
  3  1  1  0
M  END

$$$$
