No_3989-gen_results/8p0m/2024-11-27-11-27-31/
     RDKit          3D

 30 33  0  0  0  0  0  0  0  0999 V2000
  -28.0162   -0.8135   28.8779 C   0  0  0  0  0  0  0  0  0  0  0  0
  -28.4690   -0.7850   29.8287 C   0  0  0  0  0  0  0  0  0  0  0  0
  -28.1816    0.4277   28.1134 C   0  0  0  0  0  0  0  0  0  0  0  0
  -27.4498    0.6435   26.8500 C   0  0  0  0  0  0  0  0  0  0  0  0
  -27.8596    1.4573   25.9076 C   0  0  0  0  0  0  0  0  0  0  0  0
  -29.4263    0.1097   30.4178 C   0  0  0  0  0  0  0  0  0  0  0  0
  -29.6233    1.2198   29.7351 C   0  0  0  0  0  0  0  0  0  0  0  0
  -28.9609    1.4529   28.5513 C   0  0  0  0  0  0  0  0  0  0  0  0
  -27.1733    1.5743   24.7028 C   0  0  0  0  0  0  0  0  0  0  0  0
  -26.0892    0.7468   24.4126 C   0  0  0  0  0  0  0  0  0  0  0  0
  -25.6364   -0.1191   25.3972 C   0  0  0  0  0  0  0  0  0  0  0  0
  -26.2807   -0.2063   26.5817 C   0  0  0  0  0  0  0  0  0  0  0  0
  -30.4549    2.2210   30.2334 O   0  0  0  0  0  0  0  0  0  0  0  0
  -31.2891    2.8190   29.6034 C   0  0  0  0  0  0  0  0  0  0  0  0
  -31.0529    4.1255   29.3179 C   0  0  0  0  0  0  0  0  0  0  0  0
  -31.3298    4.6167   28.2885 O   0  0  0  0  0  0  0  0  0  0  0  0
  -30.3204    4.9122   30.2372 N   0  0  0  0  0  0  0  0  0  0  0  0
  -29.9039    6.2527   29.9897 C   0  0  0  0  0  0  0  0  0  0  0  0
  -32.6423    2.7231   30.3574 C   0  0  0  0  0  0  0  0  0  0  0  0
  -33.4450    1.7511   29.9882 C   0  0  0  0  0  0  0  0  0  0  0  0
  -34.5728    1.7737   29.9627 C   0  0  0  0  0  0  0  0  0  0  0  0
  -35.3060    2.8596   30.7031 C   0  0  0  0  0  0  0  0  0  0  0  0
  -34.4972    3.9038   31.1148 C   0  0  0  0  0  0  0  0  0  0  0  0
  -33.1567    3.8791   30.9212 C   0  0  0  0  0  0  0  0  0  0  0  0
  -28.9490    6.6068   30.0325 C   0  0  0  0  0  0  0  0  0  0  0  0
  -27.9128    5.9765   30.9331 C   0  0  0  0  0  0  0  0  0  0  0  0
  -26.5425    6.3196   30.9398 C   0  0  0  0  0  0  0  0  0  0  0  0
  -26.0815    7.1862   30.0187 C   0  0  0  0  0  0  0  0  0  0  0  0
  -26.9063    7.8274   29.1110 C   0  0  0  0  0  0  0  0  0  0  0  0
  -28.2417    7.4970   29.1199 C   0  0  0  0  0  0  0  0  0  0  0  0
  3  4  1  0
  7 13  1  0
 13 14  1  0
 14 15  1  0
 15 16  2  0
 15 17  1  0
 17 18  1  0
 14 19  1  0
 18 25  1  0
 25 26  2  0
 26 27  1  0
 27 28  2  0
 28 29  1  0
 29 30  2  0
 30 25  1  0
  4  5  2  0
  5  9  1  0
  9 10  2  0
 10 11  1  0
 11 12  2  0
 12  4  1  0
 19 20  2  0
 20 21  1  0
 21 22  2  0
 22 23  1  0
 23 24  2  0
 24 19  1  0
  1  2  2  0
  2  6  1  0
  6  7  2  0
  7  8  1  0
  8  3  2  0
  3  1  1  0
M  END

$$$$
