No_3423-gen_results/8p0m/2024-11-27-11-27-31/
     RDKit          3D

 35 38  0  0  0  0  0  0  0  0999 V2000
  -28.1229   -1.3353   28.4874 O   0  0  0  0  0  0  0  0  0  0  0  0
  -27.0637   -0.8242   28.8687 C   0  0  0  0  0  0  0  0  0  0  0  0
  -26.4017   -0.0623   28.6224 C   0  0  0  0  0  0  0  0  0  0  0  0
  -26.3805   -1.7991   29.9619 N   0  0  0  0  0  0  0  0  0  0  0  0
  -25.0334    0.3743   29.0484 C   0  0  0  0  0  0  0  0  0  0  0  0
  -24.5462   -0.4703   30.1069 C   0  0  0  0  0  0  0  0  0  0  0  0
  -23.1825   -0.2090   30.6548 C   0  0  0  0  0  0  0  0  0  0  0  0
  -25.2403   -1.6006   30.5360 C   0  0  0  0  0  0  0  0  0  0  0  0
  -26.8176    0.9805   27.5115 C   0  0  0  0  0  0  0  0  0  0  0  0
  -26.0187    1.2625   26.5117 C   0  0  0  0  0  0  0  0  0  0  0  0
  -22.4998    0.7636   30.2211 O   0  0  0  0  0  0  0  0  0  0  0  0
  -22.7450   -0.8964   31.7027 O   0  0  0  0  0  0  0  0  0  0  0  0
  -26.4893    2.0011   25.4316 C   0  0  0  0  0  0  0  0  0  0  0  0
  -27.8529    2.4025   25.3458 C   0  0  0  0  0  0  0  0  0  0  0  0
  -28.6910    2.0035   26.4014 C   0  0  0  0  0  0  0  0  0  0  0  0
  -28.1818    1.2967   27.4873 C   0  0  0  0  0  0  0  0  0  0  0  0
  -27.2588   -2.9507   30.3576 C   0  0  0  0  0  0  0  0  0  0  0  0
  -28.4641   -2.7597   30.9929 C   0  0  0  0  0  0  0  0  0  0  0  0
  -29.2374   -3.8339   31.2587 C   0  0  0  0  0  0  0  0  0  0  0  0
  -30.4898   -3.6508   31.8722 C   0  0  0  0  0  0  0  0  0  0  0  0
  -30.9669   -2.7162   31.8131 C   0  0  0  0  0  0  0  0  0  0  0  0
  -30.4029   -1.4114   31.5373 C   0  0  0  0  0  0  0  0  0  0  0  0
  -29.0717   -1.4629   31.0733 C   0  0  0  0  0  0  0  0  0  0  0  0
  -26.6672   -4.0190   30.1092 O   0  0  0  0  0  0  0  0  0  0  0  0
  -30.3430    2.7492   26.2523 Br  0  0  0  0  0  0  0  0  0  0  0  0
  -31.0418   -0.0900   31.7057 C   0  0  0  0  0  0  0  0  0  0  0  0
  -31.8035    0.3112   30.9800 O   0  0  0  0  0  0  0  0  0  0  0  0
  -30.5696    0.6207   32.7552 O   0  0  0  0  0  0  0  0  0  0  0  0
  -30.4837    1.8589   32.8325 C   0  0  0  0  0  0  0  0  0  0  0  0
  -29.3898    2.3335   32.9543 C   0  0  0  0  0  0  0  0  0  0  0  0
  -28.2948    1.8270   33.6203 C   0  0  0  0  0  0  0  0  0  0  0  0
  -26.9232    2.3276   33.6489 C   0  0  0  0  0  0  0  0  0  0  0  0
  -26.6687    3.5256   32.9392 C   0  0  0  0  0  0  0  0  0  0  0  0
  -27.6744    4.1511   32.2302 C   0  0  0  0  0  0  0  0  0  0  0  0
  -28.9514    3.5946   32.2036 C   0  0  0  0  0  0  0  0  0  0  0  0
  1  2  2  0
  2  3  1  0
  2  4  1  0
  3  5  1  0
  6  7  1  0
  4  8  1  0
  6  8  1  0
  3  9  1  0
  7 11  2  0
  7 12  1  0
  4 17  1  0
 17 18  1  0
 17 24  2  0
 15 25  1  0
 22 26  1  0
 26 27  2  0
 26 28  1  0
 28 29  1  0
 29 30  1  0
  5  6  1  0
 18 19  2  0
 19 20  1  0
 20 21  2  0
 21 22  1  0
 22 23  2  0
 23 18  1  0
 30 31  2  0
 31 32  1  0
 32 33  2  0
 33 34  1  0
 34 35  2  0
 35 30  1  0
  9 10  2  0
 10 13  1  0
 13 14  2  0
 14 15  1  0
 15 16  2  0
 16  9  1  0
M  END

$$$$
