No_3163-gen_results/8p0m/2024-11-27-11-27-31/
     RDKit          3D

 19 21  0  0  0  0  0  0  0  0999 V2000
  -28.0162   -0.8135   28.8779 C   0  0  0  0  0  0  0  0  0  0  0  0
  -28.4690   -0.7850   29.8287 C   0  0  0  0  0  0  0  0  0  0  0  0
  -27.1356    0.2359   28.5352 C   0  0  0  0  0  0  0  0  0  0  0  0
  -26.8745    1.2825   29.3982 C   0  0  0  0  0  0  0  0  0  0  0  0
  -28.3426    0.0691   30.8236 C   0  0  0  0  0  0  0  0  0  0  0  0
  -27.5245    1.1625   30.6420 C   0  0  0  0  0  0  0  0  0  0  0  0
  -26.3962    0.3216   27.2201 C   0  0  0  0  0  0  0  0  0  0  0  0
  -26.7564    0.7478   26.2907 C   0  0  0  0  0  0  0  0  0  0  0  0
  -26.0083    0.6805   24.9811 C   0  0  0  0  0  0  0  0  0  0  0  0
  -25.0563   -0.2819   27.2757 C   0  0  0  0  0  0  0  0  0  0  0  0
  -24.1908   -0.2024   26.2395 C   0  0  0  0  0  0  0  0  0  0  0  0
  -24.6993    0.2522   25.0328 C   0  0  0  0  0  0  0  0  0  0  0  0
  -24.5040   -0.7288   28.4271 F   0  0  0  0  0  0  0  0  0  0  0  0
  -28.1891    1.2699   26.0088 C   0  0  0  0  0  0  0  0  0  0  0  0
  -28.3365    2.5937   26.2108 C   0  0  0  0  0  0  0  0  0  0  0  0
  -29.6537    3.1928   26.1787 C   0  0  0  0  0  0  0  0  0  0  0  0
  -30.6642    2.4707   25.7143 C   0  0  0  0  0  0  0  0  0  0  0  0
  -29.2099    0.5143   25.6326 C   0  0  0  0  0  0  0  0  0  0  0  0
  -30.4655    1.0708   25.4981 C   0  0  0  0  0  0  0  0  0  0  0  0
  3  7  1  0
 10 13  1  0
  8 14  1  0
 14 15  2  0
 15 16  1  0
 16 17  2  0
 17 19  1  0
 19 18  2  0
 18 14  1  0
  1  2  2  0
  2  5  1  0
  5  6  2  0
  6  4  1  0
  4  3  2  0
  3  1  1  0
  7  8  1  0
  8  9  2  0
  9 12  1  0
 12 11  2  0
 11 10  1  0
 10  7  2  0
M  END

$$$$
