No_3785-gen_results/8p0m/2024-11-27-11-27-31/
     RDKit          3D

 21 22  0  0  0  0  0  0  0  0999 V2000
  -28.0162   -0.8135   28.8779 C   0  0  0  0  0  0  0  0  0  0  0  0
  -27.0636   -0.1189   28.6079 C   0  0  0  0  0  0  0  0  0  0  0  0
  -27.0010    0.6913   27.4910 C   0  0  0  0  0  0  0  0  0  0  0  0
  -25.8548    1.4825   27.0830 C   0  0  0  0  0  0  0  0  0  0  0  0
  -24.6901    1.4526   27.8807 C   0  0  0  0  0  0  0  0  0  0  0  0
  -24.7379    0.6010   29.0416 C   0  0  0  0  0  0  0  0  0  0  0  0
  -25.8234   -0.1688   29.3887 C   0  0  0  0  0  0  0  0  0  0  0  0
  -29.2075   -0.1514   29.0660 N   0  0  0  0  0  0  0  0  0  0  0  0
  -29.6327    0.2314   30.2532 C   0  0  0  0  0  0  0  0  0  0  0  0
  -29.1482   -0.0446   31.2597 C   0  0  0  0  0  0  0  0  0  0  0  0
  -30.8710    1.1105   30.1357 C   0  0  0  0  0  0  0  0  0  0  0  0
  -29.6726    0.4714   32.5991 C   0  0  0  0  0  0  0  0  0  0  0  0
  -31.3689    1.5915   31.3841 C   0  0  0  0  0  0  0  0  0  0  0  0
  -30.7821    1.2637   32.5649 C   0  0  0  0  0  0  0  0  0  0  0  0
  -29.9999   -0.0286   27.8472 C   0  0  0  0  0  0  0  0  0  0  0  0
  -23.5017    2.1782   27.5441 C   0  0  0  0  0  0  0  0  0  0  0  0
  -22.7264    2.4176   28.4817 F   0  0  0  0  0  0  0  0  0  0  0  0
  -23.7643    3.2938   26.9572 F   0  0  0  0  0  0  0  0  0  0  0  0
  -22.7286    1.4659   26.6426 F   0  0  0  0  0  0  0  0  0  0  0  0
  -29.7787    0.8890   27.2111 O   0  0  0  0  0  0  0  0  0  0  0  0
  -30.8792   -0.8829   27.7105 O   0  0  0  0  0  0  0  0  0  0  0  0
  1  2  1  0
  1  8  1  0
  8  9  1  0
  8 15  1  0
  5 16  1  0
 16 17  1  0
 16 18  1  0
 16 19  1  0
 15 20  2  0
 15 21  1  0
  2  3  2  0
  3  4  1  0
  4  5  2  0
  5  6  1  0
  6  7  2  0
  7  2  1  0
  9 10  2  0
 10 12  1  0
 12 14  2  0
 14 13  1  0
 13 11  2  0
 11  9  1  0
M  END

$$$$
