No_310-gen_results/8p0m/2024-11-27-11-27-31/
     RDKit          3D

 24 25  0  0  0  0  0  0  0  0999 V2000
  -28.0162   -0.8135   28.8779 C   0  0  0  0  0  0  0  0  0  0  0  0
  -27.0636   -0.1189   28.6079 C   0  0  0  0  0  0  0  0  0  0  0  0
  -26.9287    1.1713   29.0083 C   0  0  0  0  0  0  0  0  0  0  0  0
  -25.7702    2.0341   28.6884 C   0  0  0  0  0  0  0  0  0  0  0  0
  -24.7141    1.4431   27.9188 C   0  0  0  0  0  0  0  0  0  0  0  0
  -24.8590    0.0783   27.5836 C   0  0  0  0  0  0  0  0  0  0  0  0
  -25.9647   -0.6606   27.9164 C   0  0  0  0  0  0  0  0  0  0  0  0
  -27.9820   -1.6112   30.1028 N   0  0  0  0  0  0  0  0  0  0  0  0
  -23.5351    2.1704   27.5550 C   0  0  0  0  0  0  0  0  0  0  0  0
  -22.6455    1.5740   27.1505 F   0  0  0  0  0  0  0  0  0  0  0  0
  -23.0609    2.8934   28.6474 F   0  0  0  0  0  0  0  0  0  0  0  0
  -23.8997    3.1901   26.7043 F   0  0  0  0  0  0  0  0  0  0  0  0
  -29.2056   -0.5663   28.5128 O   0  0  0  0  0  0  0  0  0  0  0  0
  -29.0476   -2.4990   30.5761 C   0  0  0  0  0  0  0  0  0  0  0  0
  -26.6937   -1.9040   30.7720 C   0  0  0  0  0  0  0  0  0  0  0  0
  -29.8650   -2.7435   30.0529 C   0  0  0  0  0  0  0  0  0  0  0  0
  -30.9551   -3.6809   30.5740 C   0  0  0  0  0  0  0  0  0  0  0  0
  -30.6832   -4.3188   31.7876 C   0  0  0  0  0  0  0  0  0  0  0  0
  -29.5324   -4.0214   32.4758 C   0  0  0  0  0  0  0  0  0  0  0  0
  -28.6463   -3.1177   31.8919 C   0  0  0  0  0  0  0  0  0  0  0  0
  -32.0887   -3.9018   29.8970 O   0  0  0  0  0  0  0  0  0  0  0  0
  -32.0620   -4.3497   28.6634 C   0  0  0  0  0  0  0  0  0  0  0  0
  -32.5497   -3.4067   27.6846 C   0  0  0  0  0  0  0  0  0  0  0  0
  -33.7328   -3.3222   27.6945 O   0  0  0  0  0  0  0  0  0  0  0  0
  1  2  1  0
  1  8  1  0
  5  9  1  0
  9 10  1  0
  9 11  1  0
  9 12  1  0
  1 13  2  0
  8 14  1  0
  8 15  1  0
 17 21  1  0
 21 22  1  0
 22 23  2  3
 23 24  1  0
  2  3  2  0
  3  4  1  0
  4  5  2  0
  5  6  1  0
  6  7  2  0
  7  2  1  0
 14 16  2  0
 16 17  1  0
 17 18  2  0
 18 19  1  0
 19 20  2  0
 20 14  1  0
M  END

$$$$
