No_3116-gen_results/8p0m/2024-11-27-11-27-31/
     RDKit          3D

 35 38  0  0  0  0  0  0  0  0999 V2000
  -28.0162   -0.8135   28.8779 C   0  0  0  0  0  0  0  0  0  0  0  0
  -27.0636   -0.1190   28.6079 C   0  0  0  0  0  0  0  0  0  0  0  0
  -25.7647   -0.3897   29.0360 C   0  0  0  0  0  0  0  0  0  0  0  0
  -24.5516    0.4058   28.7646 C   0  0  0  0  0  0  0  0  0  0  0  0
  -24.6957    1.4480   27.7988 C   0  0  0  0  0  0  0  0  0  0  0  0
  -25.9755    1.7250   27.3077 C   0  0  0  0  0  0  0  0  0  0  0  0
  -27.0718    1.0134   27.6535 C   0  0  0  0  0  0  0  0  0  0  0  0
  -28.6178   -0.4695   30.2207 C   0  0  0  0  0  0  0  0  0  0  0  0
  -28.3113    0.5057   30.7868 C   0  0  0  0  0  0  0  0  0  0  0  0
  -28.9472    0.8433   32.1556 C   0  0  0  0  0  0  0  0  0  0  0  0
  -23.4917    2.2077   27.4742 C   0  0  0  0  0  0  0  0  0  0  0  0
  -23.5883    3.1811   26.7507 O   0  0  0  0  0  0  0  0  0  0  0  0
  -22.2967    1.9627   28.0578 N   0  0  0  0  0  0  0  0  0  0  0  0
  -29.8141   -0.0797   32.6773 C   0  0  0  0  0  0  0  0  0  0  0  0
  -29.4949   -1.5650   30.8135 C   0  0  0  0  0  0  0  0  0  0  0  0
  -30.0999   -1.2837   32.0480 C   0  0  0  0  0  0  0  0  0  0  0  0
  -25.2896   -1.3815   29.8499 O   0  0  0  0  0  0  0  0  0  0  0  0
  -28.3913    1.4120   27.0504 C   0  0  0  0  0  0  0  0  0  0  0  0
  -29.1479    1.9298   27.5393 O   0  0  0  0  0  0  0  0  0  0  0  0
  -28.2917    1.2830   25.6758 N   0  0  0  0  0  0  0  0  0  0  0  0
  -29.4607    1.5475   24.8721 C   0  0  0  0  0  0  0  0  0  0  0  0
  -29.8708    0.3712   24.2239 C   0  0  0  0  0  0  0  0  0  0  0  0
  -29.2841   -0.8456   24.4428 C   0  0  0  0  0  0  0  0  0  0  0  0
  -29.9100   -1.9483   23.8219 N   0  0  0  0  0  0  0  0  0  0  0  0
  -30.9261   -1.3182   23.2152 N   0  0  0  0  0  0  0  0  0  0  0  0
  -30.9859   -0.0468   23.4305 C   0  0  0  0  0  0  0  0  0  0  0  0
  -31.9793    0.8168   23.0808 N   0  0  0  0  0  0  0  0  0  0  0  0
  -32.9044    1.2601   23.9515 C   0  0  0  0  0  0  0  0  0  0  0  0
  -33.4704    0.9160   24.7179 C   0  0  0  0  0  0  0  0  0  0  0  0
  -34.2177    1.1766   25.5542 C   0  0  0  0  0  0  0  0  0  0  0  0
  -34.8092    0.4713   26.7374 C   0  0  0  0  0  0  0  0  0  0  0  0
  -34.3824   -0.8261   26.8762 C   0  0  0  0  0  0  0  0  0  0  0  0
  -33.4681   -1.3646   25.9972 C   0  0  0  0  0  0  0  0  0  0  0  0
  -32.9451   -0.6190   25.0087 C   0  0  0  0  0  0  0  0  0  0  0  0
  -33.1388    2.9574   23.5789 Cl  0  0  0  0  0  0  0  0  0  0  0  0
  1  8  1  0
  5 11  1  0
 11 12  2  0
 11 13  1  0
  3 17  1  0
  7 18  1  0
 18 19  2  0
 18 20  1  0
 20 21  1  0
 21 22  2  3
 22 23  1  0
 23 24  2  0
 24 25  1  0
 22 26  1  0
 25 26  2  0
 26 27  1  0
 27 28  1  0
 28 35  1  0
 28 29  1  0
  1  2  1  0
 29 30  2  0
 30 31  1  0
 31 32  2  0
 32 33  1  0
 33 34  2  0
 34 29  1  0
  2  3  2  0
  3  4  1  0
  4  5  2  0
  5  6  1  0
  6  7  2  0
  7  2  1  0
  8  9  2  0
  9 10  1  0
 10 14  2  0
 14 16  1  0
 16 15  2  0
 15  8  1  0
M  END

$$$$
