No_3597-gen_results/8p0m/2024-11-27-11-27-31/
     RDKit          3D

 12 13  0  0  0  0  0  0  0  0999 V2000
  -28.0544   -1.0498   28.7246 N   0  0  0  0  0  0  0  0  0  0  0  0
  -26.9659   -0.4722   28.7709 C   0  0  0  0  0  0  0  0  0  0  0  0
  -25.8527   -0.9249   29.3786 C   0  0  0  0  0  0  0  0  0  0  0  0
  -24.5535   -0.2590   29.4587 C   0  0  0  0  0  0  0  0  0  0  0  0
  -23.4236   -0.7168   30.1423 C   0  0  0  0  0  0  0  0  0  0  0  0
  -23.5627   -1.9815   30.6642 C   0  0  0  0  0  0  0  0  0  0  0  0
  -24.7161   -2.6923   30.5308 C   0  0  0  0  0  0  0  0  0  0  0  0
  -25.7787   -2.2390   29.9110 C   0  0  0  0  0  0  0  0  0  0  0  0
  -26.8745    0.8470   27.9932 C   0  0  0  0  0  0  0  0  0  0  0  0
  -28.0001    1.2902   27.2931 C   0  0  0  0  0  0  0  0  0  0  0  0
  -29.2169   -0.4985   28.2601 C   0  0  0  0  0  0  0  0  0  0  0  0
  -29.1628    0.6428   27.5278 C   0  0  0  0  0  0  0  0  0  0  0  0
  2  3  1  0
  1  2  2  0
  2  9  1  0
  9 10  2  0
 10 12  1  0
 12 11  2  0
 11  1  1  0
  3  4  2  0
  4  5  1  0
  5  6  2  0
  6  7  1  0
  7  8  2  0
  8  3  1  0
M  END

$$$$
