No_3360-gen_results/8p0m/2024-11-27-11-27-31/
     RDKit          3D

 23 24  0  0  0  0  0  0  0  0999 V2000
  -28.0162   -0.8135   28.8779 C   0  0  0  0  0  0  0  0  0  0  0  0
  -28.4690   -0.7850   29.8287 C   0  0  0  0  0  0  0  0  0  0  0  0
  -26.5042   -0.7777   28.8766 C   0  0  0  0  0  0  0  0  0  0  0  0
  -25.8103   -0.8531   30.1028 C   0  0  0  0  0  0  0  0  0  0  0  0
  -27.9906   -0.8916   31.2257 C   0  0  0  0  0  0  0  0  0  0  0  0
  -26.6042   -0.8676   31.2652 C   0  0  0  0  0  0  0  0  0  0  0  0
  -29.9203   -0.8331   29.8239 F   0  0  0  0  0  0  0  0  0  0  0  0
  -24.3928   -0.9028   30.3599 C   0  0  0  0  0  0  0  0  0  0  0  0
  -23.7297   -1.6054   29.6884 C   0  0  0  0  0  0  0  0  0  0  0  0
  -22.2031   -1.4636   29.6704 C   0  0  0  0  0  0  0  0  0  0  0  0
  -21.7551   -0.1534   29.8553 C   0  0  0  0  0  0  0  0  0  0  0  0
  -22.5780    0.7472   30.5348 C   0  0  0  0  0  0  0  0  0  0  0  0
  -23.9426    0.4440   30.8375 C   0  0  0  0  0  0  0  0  0  0  0  0
  -24.6684    1.3239   31.4107 F   0  0  0  0  0  0  0  0  0  0  0  0
  -25.6813   -0.6955   27.6649 C   0  0  0  0  0  0  0  0  0  0  0  0
  -26.2419    0.0905   26.7737 O   0  0  0  0  0  0  0  0  0  0  0  0
  -25.6899    1.2977   26.3371 C   0  0  0  0  0  0  0  0  0  0  0  0
  -25.8335    2.3120   27.1326 C   0  0  0  0  0  0  0  0  0  0  0  0
  -26.8431    2.8433   27.5637 C   0  0  0  0  0  0  0  0  0  0  0  0
  -26.8796    3.7187   28.7058 C   0  0  0  0  0  0  0  0  0  0  0  0
  -25.6929    4.3614   29.0553 C   0  0  0  0  0  0  0  0  0  0  0  0
  -25.7285    5.2569   30.1120 N   0  0  0  0  0  0  0  0  0  0  0  0
  -24.4780    2.8120   27.8067 C   0  0  0  0  0  0  0  0  0  0  0  0
  2  7  1  0
  4  8  1  0
 13 14  1  0
  3 15  1  0
 15 16  1  0
 16 17  1  0
 17 18  1  0
 18 19  1  0
 19 20  2  3
 20 21  1  0
 21 22  2  0
 18 23  1  0
  8  9  2  0
  9 10  1  0
 10 11  2  0
 11 12  1  0
 12 13  2  0
 13  8  1  0
  1  2  2  0
  2  5  1  0
  5  6  2  0
  6  4  1  0
  4  3  2  0
  3  1  1  0
M  END

$$$$
