No_37-gen_results/8p0m/2024-11-27-11-27-31/
     RDKit          3D

 26 28  0  0  0  0  0  0  0  0999 V2000
  -28.1229   -1.3353   28.4874 O   0  0  0  0  0  0  0  0  0  0  0  0
  -27.4806   -0.4044   28.7094 C   0  0  0  0  0  0  0  0  0  0  0  0
  -26.4599   -0.1104   28.0051 N   0  0  0  0  0  0  0  0  0  0  0  0
  -25.4297    0.8788   28.3572 C   0  0  0  0  0  0  0  0  0  0  0  0
  -24.3600    1.0559   27.5650 C   0  0  0  0  0  0  0  0  0  0  0  0
  -27.8819    0.6038   29.7179 N   0  0  0  0  0  0  0  0  0  0  0  0
  -23.0846    1.0390   28.1572 C   0  0  0  0  0  0  0  0  0  0  0  0
  -21.9110    1.1712   27.4016 C   0  0  0  0  0  0  0  0  0  0  0  0
  -22.0304    1.9237   26.2459 C   0  0  0  0  0  0  0  0  0  0  0  0
  -23.2780    2.1322   25.6595 C   0  0  0  0  0  0  0  0  0  0  0  0
  -24.4499    1.7174   26.3309 C   0  0  0  0  0  0  0  0  0  0  0  0
  -25.7499    1.6364   29.5085 C   0  0  0  0  0  0  0  0  0  0  0  0
  -26.9835    1.4818   30.1891 C   0  0  0  0  0  0  0  0  0  0  0  0
  -20.7563    1.1674   28.0813 O   0  0  0  0  0  0  0  0  0  0  0  0
  -24.8115    2.7094   29.9351 C   0  0  0  0  0  0  0  0  0  0  0  0
  -25.2109    3.2610   30.9889 O   0  0  0  0  0  0  0  0  0  0  0  0
  -25.1481    4.6553   31.1854 C   0  0  0  0  0  0  0  0  0  0  0  0
  -26.3471    5.1820   31.8583 C   0  0  0  0  0  0  0  0  0  0  0  0
  -27.2092    4.3584   32.4334 C   0  0  0  0  0  0  0  0  0  0  0  0
  -25.8354    6.2305   32.8278 N   0  0  0  0  0  0  0  0  0  0  0  0
  -28.1822    4.8854   33.3314 C   0  0  0  0  0  0  0  0  0  0  0  0
  -29.2569    4.1233   33.6591 C   0  0  0  0  0  0  0  0  0  0  0  0
  -26.8434    6.9773   33.6061 C   0  0  0  0  0  0  0  0  0  0  0  0
  -27.8753    6.1394   33.9514 C   0  0  0  0  0  0  0  0  0  0  0  0
  -24.5968    6.9587   32.3760 C   0  0  0  0  0  0  0  0  0  0  0  0
  -30.2037    4.2938   34.2367 C   0  0  0  0  0  0  0  0  0  0  0  0
  1  2  2  0
  2  3  1  0
  3  4  1  0
  4  5  1  0
  2  6  1  0
  4 12  1  0
  6 13  1  0
 12 13  1  0
  8 14  1  0
 12 15  1  0
 15 16  1  0
 16 17  1  0
 17 18  1  0
 18 19  1  0
 18 20  1  0
 19 21  1  0
 21 22  1  0
 20 23  1  0
 21 24  1  0
 23 24  1  0
 20 25  1  0
 22 26  2  0
  5  7  2  0
  7  8  1  0
  8  9  2  0
  9 10  1  0
 10 11  2  0
 11  5  1  0
M  END

$$$$
