No_3820-gen_results/8p0m/2024-11-27-11-27-31/
     RDKit          3D

  9  9  0  0  0  0  0  0  0  0999 V2000
  -28.1493   -0.8198   28.9079 Cl  0  0  0  0  0  0  0  0  0  0  0  0
  -28.5324   -0.0471   29.7727 C   0  0  0  0  0  0  0  0  0  0  0  0
  -27.6024    0.7852   30.3185 C   0  0  0  0  0  0  0  0  0  0  0  0
  -27.9263    1.8091   31.3693 C   0  0  0  0  0  0  0  0  0  0  0  0
  -26.9740    2.7427   31.9341 C   0  0  0  0  0  0  0  0  0  0  0  0
  -25.5953    2.6553   31.4353 C   0  0  0  0  0  0  0  0  0  0  0  0
  -25.2962    1.6558   30.5002 C   0  0  0  0  0  0  0  0  0  0  0  0
  -26.1940    0.7892   30.0209 C   0  0  0  0  0  0  0  0  0  0  0  0
  -29.7409    0.0036   30.2387 F   0  0  0  0  0  0  0  0  0  0  0  0
  1  2  1  0
  2  9  1  0
  2  3  1  0
  3  4  2  0
  4  5  1  0
  5  6  2  0
  6  7  1  0
  7  8  2  0
  8  3  1  0
M  END

$$$$
