No_3340-gen_results/8p0m/2024-11-27-11-27-31/
     RDKit          3D

 25 27  0  0  0  0  0  0  0  0999 V2000
  -28.0162   -0.8135   28.8779 C   0  0  0  0  0  0  0  0  0  0  0  0
  -27.0636   -0.1189   28.6079 C   0  0  0  0  0  0  0  0  0  0  0  0
  -25.7647   -0.3897   29.0360 C   0  0  0  0  0  0  0  0  0  0  0  0
  -24.5516    0.4058   28.7646 C   0  0  0  0  0  0  0  0  0  0  0  0
  -23.2300    0.1178   29.2575 C   0  0  0  0  0  0  0  0  0  0  0  0
  -23.0942   -1.1309   29.8730 C   0  0  0  0  0  0  0  0  0  0  0  0
  -27.7980   -1.9341   29.8560 C   0  0  0  0  0  0  0  0  0  0  0  0
  -26.5420   -2.3269   30.2580 C   0  0  0  0  0  0  0  0  0  0  0  0
  -25.4514   -1.5516   29.9079 C   0  0  0  0  0  0  0  0  0  0  0  0
  -24.1562   -1.9097   30.2809 C   0  0  0  0  0  0  0  0  0  0  0  0
  -24.6450    1.6582   27.9464 C   0  0  0  0  0  0  0  0  0  0  0  0
  -24.8818    2.7021   28.4939 N   0  0  0  0  0  0  0  0  0  0  0  0
  -24.4855    1.5638   26.6865 O   0  0  0  0  0  0  0  0  0  0  0  0
  -25.0093    4.0455   27.8322 C   0  0  0  0  0  0  0  0  0  0  0  0
  -25.1000    2.9161   30.0222 C   0  0  0  0  0  0  0  0  0  0  0  0
  -26.4609    3.1382   30.4737 C   0  0  0  0  0  0  0  0  0  0  0  0
  -26.7269    2.3704   31.6248 C   0  0  0  0  0  0  0  0  0  0  0  0
  -28.0401    2.3388   32.1488 C   0  0  0  0  0  0  0  0  0  0  0  0
  -29.0339    3.0296   31.4601 C   0  0  0  0  0  0  0  0  0  0  0  0
  -28.7159    3.7569   30.3067 C   0  0  0  0  0  0  0  0  0  0  0  0
  -27.4240    3.7868   29.8035 C   0  0  0  0  0  0  0  0  0  0  0  0
  -26.1861    4.2396   27.0806 C   0  0  0  0  0  0  0  0  0  0  0  0
  -29.0391   -2.7143   30.2721 C   0  0  0  0  0  0  0  0  0  0  0  0
  -30.0629   -2.1701   30.1720 O   0  0  0  0  0  0  0  0  0  0  0  0
  -28.8359   -3.8584   30.7625 O   0  0  0  0  0  0  0  0  0  0  0  0
  4 11  1  0
 11 12  1  0
 11 13  2  0
 12 14  1  0
 12 15  1  0
 15 16  1  0
 14 22  1  0
  7 23  1  0
 23 24  2  0
 23 25  1  0
 16 17  2  0
 17 18  1  0
 18 19  2  0
 19 20  1  0
 20 21  2  0
 21 16  1  0
  1  2  2  0
  2  3  1  0
  9  8  1  0
  8  7  2  0
  7  1  1  0
  3  4  2  0
  4  5  1  0
  5  6  2  0
  6 10  1  0
 10  9  2  0
  9  3  1  0
M  END

$$$$
