No_3567-gen_results/8p0m/2024-11-27-11-27-31/
     RDKit          3D

 17 17  0  0  0  0  0  0  0  0999 V2000
  -28.0162   -0.8135   28.8779 C   0  0  0  0  0  0  0  0  0  0  0  0
  -27.0636   -0.1189   28.6079 C   0  0  0  0  0  0  0  0  0  0  0  0
  -26.9716    0.7139   27.5060 C   0  0  0  0  0  0  0  0  0  0  0  0
  -28.1053    0.7744   26.6421 C   0  0  0  0  0  0  0  0  0  0  0  0
  -29.2041    0.1179   27.0477 C   0  0  0  0  0  0  0  0  0  0  0  0
  -29.2127   -0.6088   28.1281 C   0  0  0  0  0  0  0  0  0  0  0  0
  -30.3709    0.2326   26.1381 C   0  0  0  0  0  0  0  0  0  0  0  0
  -31.2520   -0.4036   26.3042 O   0  0  0  0  0  0  0  0  0  0  0  0
  -30.3125    1.0175   25.0722 O   0  0  0  0  0  0  0  0  0  0  0  0
  -25.6591    1.4028   27.1328 C   0  0  0  0  0  0  0  0  0  0  0  0
  -25.1457    2.3398   28.1296 C   0  0  0  0  0  0  0  0  0  0  0  0
  -24.0891    2.5235   28.5546 C   0  0  0  0  0  0  0  0  0  0  0  0
  -26.1681    3.4654   28.3727 C   0  0  0  0  0  0  0  0  0  0  0  0
  -22.9064    1.8534   27.9947 C   0  0  0  0  0  0  0  0  0  0  0  0
  -26.5837    4.2351   27.5819 C   0  0  0  0  0  0  0  0  0  0  0  0
  -26.6377    3.4654   29.7844 C   0  0  0  0  0  0  0  0  0  0  0  0
  -26.1207    3.5384   30.7291 C   0  0  0  0  0  0  0  0  0  0  0  0
  5  7  1  0
  7  8  1  0
  7  9  2  0
  3 10  1  0
 10 11  1  0
 11 12  2  3
 11 13  1  0
 12 14  1  0
 13 15  1  0
 13 16  1  0
 16 17  2  0
  1  2  2  0
  2  3  1  0
  3  4  2  0
  4  5  1  0
  5  6  2  0
  6  1  1  0
M  END

$$$$
