No_3394-gen_results/8p0m/2024-11-27-11-27-31/
     RDKit          3D

 16 15  0  0  0  0  0  0  0  0999 V2000
  -28.0162   -0.8135   28.8779 C   0  0  0  0  0  0  0  0  0  0  0  0
  -27.0636   -0.1189   28.6079 C   0  0  0  0  0  0  0  0  0  0  0  0
  -25.6156   -0.5162   28.8771 Cl  0  0  0  0  0  0  0  0  0  0  0  0
  -28.4667   -0.6427   30.1520 C   0  0  0  0  0  0  0  0  0  0  0  0
  -28.7383   -1.7415   30.9497 C   0  0  0  0  0  0  0  0  0  0  0  0
  -28.9906   -2.9865   30.2486 C   0  0  0  0  0  0  0  0  0  0  0  0
  -29.8837   -3.7265   30.6786 N   0  0  0  0  0  0  0  0  0  0  0  0
  -30.2060   -4.9262   30.0502 C   0  0  0  0  0  0  0  0  0  0  0  0
  -27.1459    1.2460   28.2524 C   0  0  0  0  0  0  0  0  0  0  0  0
  -31.2494   -5.6986   30.3804 C   0  0  0  0  0  0  0  0  0  0  0  0
  -26.8303    1.7112   27.2281 C   0  0  0  0  0  0  0  0  0  0  0  0
  -26.9464    3.1127   26.8163 C   0  0  0  0  0  0  0  0  0  0  0  0
  -27.5729    3.9970   27.6051 C   0  0  0  0  0  0  0  0  0  0  0  0
  -27.6726    5.3524   27.3857 C   0  0  0  0  0  0  0  0  0  0  0  0
  -28.0305    3.5206   28.8917 C   0  0  0  0  0  0  0  0  0  0  0  0
  -27.8368    2.1551   29.2481 C   0  0  0  0  0  0  0  0  0  0  0  0
  1  2  1  0
  2  3  1  0
  1  4  1  0
  4  5  2  3
  5  6  1  0
  6  7  1  0
  7  8  1  0
  2  9  1  0
  8 10  1  0
  9 11  2  3
 11 12  1  0
 12 13  2  3
 13 14  1  0
 13 15  1  0
 15 16  2  0
M  END

$$$$
