No_3557-gen_results/8p0m/2024-11-27-11-27-31/
     RDKit          3D

 17 17  0  0  0  0  0  0  0  0999 V2000
  -28.0162   -0.8135   28.8779 C   0  0  0  0  0  0  0  0  0  0  0  0
  -27.0636   -0.1189   28.6079 C   0  0  0  0  0  0  0  0  0  0  0  0
  -25.7647   -0.3897   29.0360 C   0  0  0  0  0  0  0  0  0  0  0  0
  -24.5516    0.4058   28.7646 C   0  0  0  0  0  0  0  0  0  0  0  0
  -24.6957    1.4480   27.7988 C   0  0  0  0  0  0  0  0  0  0  0  0
  -25.9755    1.7250   27.3077 C   0  0  0  0  0  0  0  0  0  0  0  0
  -27.0718    1.0134   27.6535 C   0  0  0  0  0  0  0  0  0  0  0  0
  -28.6043   -0.4743   30.2323 C   0  0  0  0  0  0  0  0  0  0  0  0
  -28.2997    0.2196   30.9512 O   0  0  0  0  0  0  0  0  0  0  0  0
  -29.7033   -1.4565   30.5546 N   0  0  0  0  0  0  0  0  0  0  0  0
  -23.5035    2.2384   27.5075 C   0  0  0  0  0  0  0  0  0  0  0  0
  -23.6118    3.1788   26.6687 N   0  0  0  0  0  0  0  0  0  0  0  0
  -22.3377    1.9186   27.9056 O   0  0  0  0  0  0  0  0  0  0  0  0
  -30.3827   -1.3253   31.8592 C   0  0  0  0  0  0  0  0  0  0  0  0
  -28.2748    1.2597   27.1408 O   0  0  0  0  0  0  0  0  0  0  0  0
  -28.6675    1.8972   26.3212 C   0  0  0  0  0  0  0  0  0  0  0  0
  -28.7794    3.1462   26.4350 C   0  0  0  0  0  0  0  0  0  0  0  0
  1  2  2  3
  2  3  1  0
  3  4  1  0
  4  5  1  0
  5  6  1  0
  2  7  1  0
  6  7  1  0
  1  8  1  0
  8  9  2  0
  8 10  1  0
  5 11  1  0
 11 12  1  0
 11 13  2  0
 10 14  1  0
  7 15  1  0
 15 16  1  0
 16 17  2  0
M  END

$$$$
