No_3229-gen_results/8p0m/2024-11-27-11-27-31/
     RDKit          3D

 15 16  0  0  0  0  0  0  0  0999 V2000
  -28.0162   -0.8135   28.8779 C   0  0  0  0  0  0  0  0  0  0  0  0
  -28.4690   -0.7850   29.8287 C   0  0  0  0  0  0  0  0  0  0  0  0
  -26.5455   -0.8762   28.8500 C   0  0  0  0  0  0  0  0  0  0  0  0
  -25.8041   -1.0324   30.0571 C   0  0  0  0  0  0  0  0  0  0  0  0
  -27.9437   -0.9869   31.2075 C   0  0  0  0  0  0  0  0  0  0  0  0
  -26.5825   -1.0386   31.2231 C   0  0  0  0  0  0  0  0  0  0  0  0
  -29.9648   -0.7353   29.8902 N   0  0  0  0  0  0  0  0  0  0  0  0
  -30.7710   -1.5353   30.3549 C   0  0  0  0  0  0  0  0  0  0  0  0
  -31.4273   -2.2155   29.9981 C   0  0  0  0  0  0  0  0  0  0  0  0
  -31.7666   -2.1391   28.5335 C   0  0  0  0  0  0  0  0  0  0  0  0
  -31.4538   -0.9472   28.0233 N   0  0  0  0  0  0  0  0  0  0  0  0
  -30.3289   -0.3568   28.5749 C   0  0  0  0  0  0  0  0  0  0  0  0
  -29.4752    0.1776   27.8293 O   0  0  0  0  0  0  0  0  0  0  0  0
  -28.3777   -0.1478   27.7578 N   0  0  0  0  0  0  0  0  0  0  0  0
  -27.4916    0.0926   26.6503 C   0  0  0  0  0  0  0  0  0  0  0  0
  2  7  1  0
  7  8  1  0
  9 10  1  0
  7 12  1  0
 11 12  1  0
 12 13  2  0
  1 14  1  0
 14 15  1  0
  8  9  1  0
 10 11  1  0
  1  2  2  0
  2  5  1  0
  5  6  2  0
  6  4  1  0
  4  3  2  0
  3  1  1  0
M  END

$$$$
