No_3496-gen_results/8p0m/2024-11-27-11-27-31/
     RDKit          3D

 29 30  0  0  0  0  0  0  0  0999 V2000
  -28.0162   -0.8135   28.8779 C   0  0  0  0  0  0  0  0  0  0  0  0
  -27.0636   -0.1189   28.6079 C   0  0  0  0  0  0  0  0  0  0  0  0
  -25.7923   -0.4302   29.0761 C   0  0  0  0  0  0  0  0  0  0  0  0
  -24.5456    0.3494   28.8225 C   0  0  0  0  0  0  0  0  0  0  0  0
  -24.6586    1.4196   27.8878 C   0  0  0  0  0  0  0  0  0  0  0  0
  -25.9471    1.6811   27.3792 C   0  0  0  0  0  0  0  0  0  0  0  0
  -27.0439    0.9739   27.6871 C   0  0  0  0  0  0  0  0  0  0  0  0
  -27.9517   -1.7518   29.9375 N   0  0  0  0  0  0  0  0  0  0  0  0
  -29.1108   -0.7488   28.3347 O   0  0  0  0  0  0  0  0  0  0  0  0
  -29.0453   -2.6075   30.3999 C   0  0  0  0  0  0  0  0  0  0  0  0
  -23.1356    2.3960   27.5008 Br  0  0  0  0  0  0  0  0  0  0  0  0
  -29.4987   -2.1507   31.6112 C   0  0  0  0  0  0  0  0  0  0  0  0
  -28.9495   -1.4566   32.2555 O   0  0  0  0  0  0  0  0  0  0  0  0
  -30.7393   -2.7735   31.9901 N   0  0  0  0  0  0  0  0  0  0  0  0
  -31.3898   -2.3352   33.2760 C   0  0  0  0  0  0  0  0  0  0  0  0
  -31.4576   -3.7087   31.2239 C   0  0  0  0  0  0  0  0  0  0  0  0
  -23.1495    0.0377   29.1878 C   0  0  0  0  0  0  0  0  0  0  0  0
  -22.0885   -0.1312   28.5371 C   0  0  0  0  0  0  0  0  0  0  0  0
  -23.1824   -0.3232   30.6999 C   0  0  0  0  0  0  0  0  0  0  0  0
  -20.8976   -0.6484   29.1656 C   0  0  0  0  0  0  0  0  0  0  0  0
  -24.3108   -0.1253   31.5126 C   0  0  0  0  0  0  0  0  0  0  0  0
  -20.8472   -0.9108   30.3617 F   0  0  0  0  0  0  0  0  0  0  0  0
  -19.8342   -0.7375   28.3921 F   0  0  0  0  0  0  0  0  0  0  0  0
  -24.7609    1.1189   31.8626 C   0  0  0  0  0  0  0  0  0  0  0  0
  -25.8156    1.2910   32.8260 C   0  0  0  0  0  0  0  0  0  0  0  0
  -26.3829    2.5488   33.1058 C   0  0  0  0  0  0  0  0  0  0  0  0
  -25.7053    3.7080   32.5883 C   0  0  0  0  0  0  0  0  0  0  0  0
  -24.6268    3.5667   31.7050 C   0  0  0  0  0  0  0  0  0  0  0  0
  -24.1328    2.3160   31.3861 C   0  0  0  0  0  0  0  0  0  0  0  0
  1  2  1  0
  1  8  1  0
  1  9  2  0
  8 10  1  0
  5 11  1  0
 10 12  1  0
 12 13  2  0
 12 14  1  0
 14 15  1  0
 14 16  1  0
  4 17  1  0
 17 18  1  0
 17 19  1  0
 18 20  1  0
 19 21  1  0
 20 22  1  0
 20 23  1  0
 21 24  1  0
  2  3  2  0
  3  4  1  0
  4  5  2  0
  5  6  1  0
  6  7  2  0
  7  2  1  0
 24 25  2  0
 25 26  1  0
 26 27  2  0
 27 28  1  0
 28 29  2  0
 29 24  1  0
M  END

$$$$
