No_3223-gen_results/8p0m/2024-11-27-11-27-31/
     RDKit          3D

 28 31  0  0  0  0  0  0  0  0999 V2000
  -28.0162   -0.8135   28.8779 C   0  0  0  0  0  0  0  0  0  0  0  0
  -28.4690   -0.7850   29.8287 C   0  0  0  0  0  0  0  0  0  0  0  0
  -26.5042   -0.7777   28.8766 C   0  0  0  0  0  0  0  0  0  0  0  0
  -25.8103   -0.8531   30.1028 C   0  0  0  0  0  0  0  0  0  0  0  0
  -27.9906   -0.8916   31.2257 C   0  0  0  0  0  0  0  0  0  0  0  0
  -26.6042   -0.8676   31.2652 C   0  0  0  0  0  0  0  0  0  0  0  0
  -30.0739   -0.8360   29.8615 C   0  0  0  0  0  0  0  0  0  0  0  0
  -30.6454   -0.1837   28.9598 N   0  0  0  0  0  0  0  0  0  0  0  0
  -30.1746    0.8452   28.4366 C   0  0  0  0  0  0  0  0  0  0  0  0
  -30.8104    1.6133   27.6668 C   0  0  0  0  0  0  0  0  0  0  0  0
  -32.1375    1.5036   27.4749 C   0  0  0  0  0  0  0  0  0  0  0  0
  -31.9695   -0.4768   28.6582 C   0  0  0  0  0  0  0  0  0  0  0  0
  -32.7487    0.3750   27.9579 C   0  0  0  0  0  0  0  0  0  0  0  0
  -30.5677   -1.2882   30.9203 O   0  0  0  0  0  0  0  0  0  0  0  0
  -25.7107   -0.6538   27.6323 C   0  0  0  0  0  0  0  0  0  0  0  0
  -25.9343    0.3489   26.7015 C   0  0  0  0  0  0  0  0  0  0  0  0
  -25.5872    1.2577   26.4221 C   0  0  0  0  0  0  0  0  0  0  0  0
  -25.9562    2.0495   25.2432 C   0  0  0  0  0  0  0  0  0  0  0  0
  -27.1545    1.6277   24.6203 C   0  0  0  0  0  0  0  0  0  0  0  0
  -27.1714    0.0204   25.8266 C   0  0  0  0  0  0  0  0  0  0  0  0
  -27.7041    0.5795   24.9321 C   0  0  0  0  0  0  0  0  0  0  0  0
  -28.9578    0.2636   24.1642 C   0  0  0  0  0  0  0  0  0  0  0  0
  -30.1291    0.2142   24.9954 C   0  0  0  0  0  0  0  0  0  0  0  0
  -31.1705   -0.3241   24.3912 C   0  0  0  0  0  0  0  0  0  0  0  0
  -31.2864   -1.2305   23.7752 C   0  0  0  0  0  0  0  0  0  0  0  0
  -29.9938   -1.6288   23.1511 C   0  0  0  0  0  0  0  0  0  0  0  0
  -28.7388   -1.1684   23.7302 C   0  0  0  0  0  0  0  0  0  0  0  0
  -29.1585    1.1561   23.0045 C   0  0  0  0  0  0  0  0  0  0  0  0
  2  7  1  0
  7  8  1  0
  8  9  1  0
 10 11  1  0
  8 12  1  0
  7 14  2  0
  3 15  1  0
 15 16  1  0
 21 22  1  0
 22 23  1  0
 23 24  1  0
 25 26  1  0
 22 27  1  0
 26 27  1  0
 22 28  1  0
  9 10  1  0
 11 13  1  0
 13 12  1  0
 24 25  1  0
 16 17  2  0
 17 18  1  0
 18 19  2  0
 19 21  1  0
 21 20  2  0
 20 16  1  0
  1  2  2  0
  2  5  1  0
  5  6  2  0
  6  4  1  0
  4  3  2  0
  3  1  1  0
M  END

$$$$
