No_3000-gen_results/8p0m/2024-11-27-11-27-31/
     RDKit          3D

 35 40  0  0  0  0  0  0  0  0999 V2000
  -28.0162   -0.8135   28.8779 C   0  0  0  0  0  0  0  0  0  0  0  0
  -27.0636   -0.1189   28.6079 C   0  0  0  0  0  0  0  0  0  0  0  0
  -26.9287    1.1713   29.0083 C   0  0  0  0  0  0  0  0  0  0  0  0
  -27.9560    1.7411   29.7840 C   0  0  0  0  0  0  0  0  0  0  0  0
  -29.0569   -0.3271   29.7466 C   0  0  0  0  0  0  0  0  0  0  0  0
  -28.9828    0.9722   30.1516 C   0  0  0  0  0  0  0  0  0  0  0  0
  -25.9739   -0.5937   27.8380 N   0  0  0  0  0  0  0  0  0  0  0  0
  -25.3069    0.0841   26.8586 C   0  0  0  0  0  0  0  0  0  0  0  0
  -25.1884   -1.7389   28.2896 C   0  0  0  0  0  0  0  0  0  0  0  0
  -25.2119   -2.4795   29.1318 C   0  0  0  0  0  0  0  0  0  0  0  0
  -24.4222   -3.6202   29.3017 C   0  0  0  0  0  0  0  0  0  0  0  0
  -23.3783   -3.4490   28.4942 N   0  0  0  0  0  0  0  0  0  0  0  0
  -23.8152   -2.0280   27.6587 C   0  0  0  0  0  0  0  0  0  0  0  0
  -26.2665    0.6024   25.8822 C   0  0  0  0  0  0  0  0  0  0  0  0
  -24.5061    1.3239   27.3337 C   0  0  0  0  0  0  0  0  0  0  0  0
  -23.6814    1.8180   26.9651 C   0  0  0  0  0  0  0  0  0  0  0  0
  -22.8082    2.9216   27.5340 C   0  0  0  0  0  0  0  0  0  0  0  0
  -23.1519    2.8920   28.9378 C   0  0  0  0  0  0  0  0  0  0  0  0
  -24.3820    1.7373   28.8848 C   0  0  0  0  0  0  0  0  0  0  0  0
  -26.3579   -0.0908   24.6944 C   0  0  0  0  0  0  0  0  0  0  0  0
  -27.6927   -0.1960   24.3832 C   0  0  0  0  0  0  0  0  0  0  0  0
  -28.5817    0.7256   24.9073 C   0  0  0  0  0  0  0  0  0  0  0  0
  -27.3605    1.4974   26.0239 C   0  0  0  0  0  0  0  0  0  0  0  0
  -27.9166    3.0344   30.5027 C   0  0  0  0  0  0  0  0  0  0  0  0
  -27.3514    3.1485   31.6290 C   0  0  0  0  0  0  0  0  0  0  0  0
  -29.0206    3.9246   30.1922 C   0  0  0  0  0  0  0  0  0  0  0  0
  -29.6450    4.0407   29.3677 N   0  0  0  0  0  0  0  0  0  0  0  0
  -29.1923    3.8495   28.1230 C   0  0  0  0  0  0  0  0  0  0  0  0
  -30.1675    3.8265   27.0177 C   0  0  0  0  0  0  0  0  0  0  0  0
  -27.1460    4.3668   32.1805 C   0  0  0  0  0  0  0  0  0  0  0  0
  -28.0427    5.4033   31.9492 C   0  0  0  0  0  0  0  0  0  0  0  0
  -28.9400    5.2379   30.9431 C   0  0  0  0  0  0  0  0  0  0  0  0
  -30.9299    3.1395   29.4684 C   0  0  0  0  0  0  0  0  0  0  0  0
  -31.9195    3.3475   28.4145 C   0  0  0  0  0  0  0  0  0  0  0  0
  -31.3382    3.1083   27.1416 C   0  0  0  0  0  0  0  0  0  0  0  0
  2  7  1  0
  7  8  1  0
  7  9  1  0
  9 10  1  0
 10 11  2  0
 11 12  1  0
  9 13  1  0
 12 13  2  0
  8 14  1  0
  8 15  1  0
 15 16  2  0
 16 17  1  0
 17 18  2  0
 15 19  1  0
 18 19  1  0
 14 20  1  0
 20 21  2  0
 21 22  1  0
 14 23  1  0
 22 23  2  0
  4 24  1  0
 26 27  1  0
 27 28  1  0
 27 33  1  0
 33 34  1  0
 29 35  1  0
 34 35  1  0
 28 29  1  0
  1  2  2  0
  2  3  1  0
  3  4  2  0
  4  6  1  0
  6  5  2  0
  5  1  1  0
 24 25  2  0
 25 30  1  0
 30 31  2  0
 31 32  1  0
 32 26  2  0
 26 24  1  0
M  END

$$$$
