No_3862-gen_results/8p0m/2024-11-27-11-27-31/
     RDKit          3D

 16 18  0  0  0  0  0  0  0  0999 V2000
  -28.0162   -0.8135   28.8779 C   0  0  0  0  0  0  0  0  0  0  0  0
  -28.4690   -0.7850   29.8287 C   0  0  0  0  0  0  0  0  0  0  0  0
  -28.1816    0.4277   28.1134 C   0  0  0  0  0  0  0  0  0  0  0  0
  -28.9841    1.4155   28.5154 C   0  0  0  0  0  0  0  0  0  0  0  0
  -29.3802    0.1384   30.4612 C   0  0  0  0  0  0  0  0  0  0  0  0
  -29.5415    1.2736   29.7242 C   0  0  0  0  0  0  0  0  0  0  0  0
  -27.3453    0.3423   26.8640 C   0  0  0  0  0  0  0  0  0  0  0  0
  -26.3447    1.4269   26.7580 C   0  0  0  0  0  0  0  0  0  0  0  0
  -25.0840    1.1071   26.3139 C   0  0  0  0  0  0  0  0  0  0  0  0
  -24.6014   -0.1349   26.2446 C   0  0  0  0  0  0  0  0  0  0  0  0
  -25.6365   -1.1379   26.3571 C   0  0  0  0  0  0  0  0  0  0  0  0
  -26.4804   -0.8952   27.0391 C   0  0  0  0  0  0  0  0  0  0  0  0
  -28.1759    0.3721   25.6880 C   0  0  0  0  0  0  0  0  0  0  0  0
  -27.2005   -1.5096   28.1570 N   0  0  0  0  0  0  0  0  0  0  0  0
  -28.9260   -0.3612   25.2678 C   0  0  0  0  0  0  0  0  0  0  0  0
  -29.8006   -0.2158   24.1479 C   0  0  0  0  0  0  0  0  0  0  0  0
  3  7  1  0
  7  8  1  0
  9 10  1  0
  7 12  1  0
 11 12  1  0
  7 13  1  0
  1 14  1  0
 12 14  1  0
 13 15  2  3
 15 16  1  0
  8  9  1  0
 10 11  1  0
  1  2  2  0
  2  5  1  0
  5  6  2  0
  6  4  1  0
  4  3  2  0
  3  1  1  0
M  END

$$$$
