No_3059-gen_results/8p0m/2024-11-27-11-27-31/
     RDKit          3D

 26 28  0  0  0  0  0  0  0  0999 V2000
  -28.0162   -0.8135   28.8779 C   0  0  0  0  0  0  0  0  0  0  0  0
  -27.0636   -0.1189   28.6079 C   0  0  0  0  0  0  0  0  0  0  0  0
  -25.7647   -0.3897   29.0360 C   0  0  0  0  0  0  0  0  0  0  0  0
  -24.5516    0.4058   28.7646 C   0  0  0  0  0  0  0  0  0  0  0  0
  -24.6957    1.4480   27.7988 C   0  0  0  0  0  0  0  0  0  0  0  0
  -23.5821    2.2166   27.4626 C   0  0  0  0  0  0  0  0  0  0  0  0
  -22.3295    1.8427   27.9661 C   0  0  0  0  0  0  0  0  0  0  0  0
  -22.1809    0.8284   28.8814 C   0  0  0  0  0  0  0  0  0  0  0  0
  -23.3190    0.0774   29.2471 C   0  0  0  0  0  0  0  0  0  0  0  0
  -27.8976   -1.8938   29.8574 C   0  0  0  0  0  0  0  0  0  0  0  0
  -26.6550   -2.3404   30.2745 C   0  0  0  0  0  0  0  0  0  0  0  0
  -25.5323   -1.5588   29.9128 C   0  0  0  0  0  0  0  0  0  0  0  0
  -29.0612   -2.7220   30.2437 C   0  0  0  0  0  0  0  0  0  0  0  0
  -29.3051   -2.8135   31.4934 O   0  0  0  0  0  0  0  0  0  0  0  0
  -29.4776   -3.7009   29.5406 O   0  0  0  0  0  0  0  0  0  0  0  0
  -23.6868    3.1860   26.5484 O   0  0  0  0  0  0  0  0  0  0  0  0
  -24.9898    3.8322   26.5267 C   0  0  0  0  0  0  0  0  0  0  0  0
  -25.1697    4.8211   27.4825 C   0  0  0  0  0  0  0  0  0  0  0  0
  -26.3929    5.3801   27.7236 C   0  0  0  0  0  0  0  0  0  0  0  0
  -26.5638    6.3074   28.7410 C   0  0  0  0  0  0  0  0  0  0  0  0
  -27.6798    6.7157   29.3208 C   0  0  0  0  0  0  0  0  0  0  0  0
  -27.7675    7.5782   30.4097 C   0  0  0  0  0  0  0  0  0  0  0  0
  -26.5740    8.1034   30.9075 C   0  0  0  0  0  0  0  0  0  0  0  0
  -25.3448    7.7559   30.3905 C   0  0  0  0  0  0  0  0  0  0  0  0
  -25.3066    6.8448   29.2845 C   0  0  0  0  0  0  0  0  0  0  0  0
  -26.9313    5.9427   26.4241 C   0  0  0  0  0  0  0  0  0  0  0  0
  3  4  1  0
 10 13  1  0
 13 14  2  0
 13 15  1  0
  6 16  1  0
 16 17  1  0
 17 18  1  0
 18 19  2  3
 19 20  1  0
 19 26  1  0
  1  2  2  0
  2  3  1  0
  3 12  2  0
 12 11  1  0
 11 10  2  0
 10  1  1  0
 20 21  2  0
 21 22  1  0
 22 23  2  0
 23 24  1  0
 24 25  2  0
 25 20  1  0
  4  5  2  0
  5  6  1  0
  6  7  2  0
  7  8  1  0
  8  9  2  0
  9  4  1  0
M  END

$$$$
