No_3045-gen_results/8p0m/2024-11-27-11-27-31/
     RDKit          3D

 13 13  0  0  0  0  0  0  0  0999 V2000
  -28.0162   -0.8135   28.8779 C   0  0  0  0  0  0  0  0  0  0  0  0
  -28.4690   -0.7850   29.8287 C   0  0  0  0  0  0  0  0  0  0  0  0
  -27.1356    0.2359   28.5352 C   0  0  0  0  0  0  0  0  0  0  0  0
  -26.8745    1.2825   29.3982 C   0  0  0  0  0  0  0  0  0  0  0  0
  -28.3613    0.1987   30.9244 C   0  0  0  0  0  0  0  0  0  0  0  0
  -27.5277    1.2234   30.6356 C   0  0  0  0  0  0  0  0  0  0  0  0
  -26.3879    0.2914   27.2334 C   0  0  0  0  0  0  0  0  0  0  0  0
  -25.7584    1.2862   26.9955 O   0  0  0  0  0  0  0  0  0  0  0  0
  -26.4786   -0.6570   26.4097 O   0  0  0  0  0  0  0  0  0  0  0  0
  -29.0934    0.0935   32.2401 C   0  0  0  0  0  0  0  0  0  0  0  0
  -30.0542    0.5379   32.1387 F   0  0  0  0  0  0  0  0  0  0  0  0
  -28.2653    0.7327   33.1482 F   0  0  0  0  0  0  0  0  0  0  0  0
  -29.0569   -1.2312   32.6226 F   0  0  0  0  0  0  0  0  0  0  0  0
  3  7  1  0
  7  8  2  0
  7  9  1  0
  5 10  1  0
 10 11  1  0
 10 12  1  0
 10 13  1  0
  1  2  2  0
  2  5  1  0
  5  6  2  0
  6  4  1  0
  4  3  2  0
  3  1  1  0
M  END

$$$$
