No_3030-gen_results/8p0m/2024-11-27-11-27-31/
     RDKit          3D

 22 24  0  0  0  0  0  0  0  0999 V2000
  -28.0727   -1.2542   28.5316 F   0  0  0  0  0  0  0  0  0  0  0  0
  -27.0607   -0.6291   28.8721 C   0  0  0  0  0  0  0  0  0  0  0  0
  -26.3579   -0.0711   28.0115 C   0  0  0  0  0  0  0  0  0  0  0  0
  -25.0715    0.5531   28.2555 C   0  0  0  0  0  0  0  0  0  0  0  0
  -24.5772    0.4803   29.5696 C   0  0  0  0  0  0  0  0  0  0  0  0
  -25.3317   -0.2027   30.5060 C   0  0  0  0  0  0  0  0  0  0  0  0
  -26.4956   -0.7357   30.1606 C   0  0  0  0  0  0  0  0  0  0  0  0
  -24.0740    1.2477   27.4122 C   0  0  0  0  0  0  0  0  0  0  0  0
  -24.4384    2.0027   26.3577 C   0  0  0  0  0  0  0  0  0  0  0  0
  -22.6772    1.2094   27.7222 C   0  0  0  0  0  0  0  0  0  0  0  0
  -21.7809    1.9457   26.8937 C   0  0  0  0  0  0  0  0  0  0  0  0
  -23.5298    2.6869   25.5235 C   0  0  0  0  0  0  0  0  0  0  0  0
  -22.2109    2.6613   25.8444 C   0  0  0  0  0  0  0  0  0  0  0  0
  -26.7035    0.0119   26.7227 O   0  0  0  0  0  0  0  0  0  0  0  0
  -27.8480    0.5504   26.3206 C   0  0  0  0  0  0  0  0  0  0  0  0
  -27.8057    1.3758   25.5117 C   0  0  0  0  0  0  0  0  0  0  0  0
  -26.8285    1.9136   24.9337 C   0  0  0  0  0  0  0  0  0  0  0  0
  -29.1954    1.9887   25.1859 C   0  0  0  0  0  0  0  0  0  0  0  0
  -30.2611    1.6526   25.8099 C   0  0  0  0  0  0  0  0  0  0  0  0
  -30.1656    0.6087   26.7695 C   0  0  0  0  0  0  0  0  0  0  0  0
  -31.3523    0.1848   27.4691 C   0  0  0  0  0  0  0  0  0  0  0  0
  -28.9645    0.0772   27.0092 C   0  0  0  0  0  0  0  0  0  0  0  0
  1  2  1  0
  4  8  1  0
  3 14  1  0
 14 15  1  0
 16 17  1  0
 20 21  1  0
  2  3  2  0
  3  4  1  0
  4  5  2  0
  5  6  1  0
  6  7  2  0
  7  2  1  0
  8  9  2  0
  9 12  1  0
 12 13  2  0
 13 11  1  0
 11 10  2  0
 10  8  1  0
 15 16  2  0
 16 18  1  0
 18 19  2  0
 19 20  1  0
 20 22  2  0
 22 15  1  0
M  END

$$$$
