No_3082-gen_results/8p0m/2024-11-27-11-27-31/
     RDKit          3D

 13 13  0  0  0  0  0  0  0  0999 V2000
  -28.0162   -0.8135   28.8779 C   0  0  0  0  0  0  0  0  0  0  0  0
  -27.0636   -0.1189   28.6079 C   0  0  0  0  0  0  0  0  0  0  0  0
  -26.9716    0.7139   27.5060 C   0  0  0  0  0  0  0  0  0  0  0  0
  -28.1053    0.7744   26.6421 C   0  0  0  0  0  0  0  0  0  0  0  0
  -29.2041    0.1179   27.0477 C   0  0  0  0  0  0  0  0  0  0  0  0
  -29.2127   -0.6088   28.1281 C   0  0  0  0  0  0  0  0  0  0  0  0
  -25.7106    1.4519   27.1380 C   0  0  0  0  0  0  0  0  0  0  0  0
  -25.6057    2.5657   27.6769 F   0  0  0  0  0  0  0  0  0  0  0  0
  -25.5946    1.6720   25.8117 F   0  0  0  0  0  0  0  0  0  0  0  0
  -24.6078    0.7494   27.5097 F   0  0  0  0  0  0  0  0  0  0  0  0
  -30.3074    0.2652   26.0349 C   0  0  0  0  0  0  0  0  0  0  0  0
  -30.8086    1.2041   25.8867 O   0  0  0  0  0  0  0  0  0  0  0  0
  -30.7548   -0.8686   25.4774 O   0  0  0  0  0  0  0  0  0  0  0  0
  3  7  1  0
  7  8  1  0
  7  9  1  0
  7 10  1  0
  5 11  1  0
 11 12  2  0
 11 13  1  0
  1  2  2  0
  2  3  1  0
  3  4  2  0
  4  5  1  0
  5  6  2  0
  6  1  1  0
M  END

$$$$
