No_335-gen_results/8p0m/2024-11-27-11-27-31/
     RDKit          3D

 18 19  0  0  0  0  0  0  0  0999 V2000
  -28.0162   -0.8135   28.8779 C   0  0  0  0  0  0  0  0  0  0  0  0
  -27.0636   -0.1189   28.6079 C   0  0  0  0  0  0  0  0  0  0  0  0
  -25.7647   -0.3897   29.0360 C   0  0  0  0  0  0  0  0  0  0  0  0
  -24.5516    0.4058   28.7646 C   0  0  0  0  0  0  0  0  0  0  0  0
  -24.6957    1.4480   27.7988 C   0  0  0  0  0  0  0  0  0  0  0  0
  -25.9755    1.7250   27.3077 C   0  0  0  0  0  0  0  0  0  0  0  0
  -27.0718    1.0134   27.6535 C   0  0  0  0  0  0  0  0  0  0  0  0
  -28.6077   -0.5909   30.1098 N   0  0  0  0  0  0  0  0  0  0  0  0
  -23.4939    2.1690   27.4794 C   0  0  0  0  0  0  0  0  0  0  0  0
  -22.3698    1.6022   27.3678 C   0  0  0  0  0  0  0  0  0  0  0  0
  -22.0898    0.5308   28.3015 C   0  0  0  0  0  0  0  0  0  0  0  0
  -23.2077   -0.1654   28.9765 C   0  0  0  0  0  0  0  0  0  0  0  0
  -29.4657   -0.2927   30.5869 C   0  0  0  0  0  0  0  0  0  0  0  0
  -30.5153    0.1655   29.7948 C   0  0  0  0  0  0  0  0  0  0  0  0
  -31.7530    0.6172   30.3860 C   0  0  0  0  0  0  0  0  0  0  0  0
  -32.6866    1.2301   29.5981 C   0  0  0  0  0  0  0  0  0  0  0  0
  -32.4882    1.2714   28.2004 C   0  0  0  0  0  0  0  0  0  0  0  0
  -31.3444    0.8205   27.6313 C   0  0  0  0  0  0  0  0  0  0  0  0
  1  2  2  3
  2  3  1  0
  3  4  1  0
  5  6  1  0
  2  7  1  0
  6  7  1  0
  1  8  1  0
  8 13  1  0
 13 14  2  3
 14 15  1  0
 15 16  2  3
 16 17  1  0
 17 18  2  0
  4  5  2  0
  5  9  1  0
  9 10  2  0
 10 11  1  0
 11 12  2  0
 12  4  1  0
M  END

$$$$
