No_3097-gen_results/8p0m/2024-11-27-11-27-31/
     RDKit          3D

 12 12  0  0  0  0  0  0  0  0999 V2000
  -28.0162   -0.8135   28.8779 C   0  0  0  0  0  0  0  0  0  0  0  0
  -28.4690   -0.7850   29.8287 C   0  0  0  0  0  0  0  0  0  0  0  0
  -26.5042   -0.7777   28.8766 C   0  0  0  0  0  0  0  0  0  0  0  0
  -25.8103   -0.8531   30.1028 C   0  0  0  0  0  0  0  0  0  0  0  0
  -27.9864   -0.8420   31.0657 C   0  0  0  0  0  0  0  0  0  0  0  0
  -26.6147   -0.8427   31.2304 C   0  0  0  0  0  0  0  0  0  0  0  0
  -30.0705   -0.8392   29.7973 C   0  0  0  0  0  0  0  0  0  0  0  0
  -30.7317    0.0677   30.5500 N   0  0  0  0  0  0  0  0  0  0  0  0
  -30.5724    1.0570   30.7373 C   0  0  0  0  0  0  0  0  0  0  0  0
  -31.4916    1.8296   31.6166 N   0  0  0  0  0  0  0  0  0  0  0  0
  -29.5055    1.7033   30.4005 F   0  0  0  0  0  0  0  0  0  0  0  0
  -32.6277    1.2836   31.9522 C   0  0  0  0  0  0  0  0  0  0  0  0
  2  7  1  0
  7  8  1  0
  8  9  2  3
  9 10  1  0
  9 11  1  0
 10 12  1  0
  1  2  2  0
  2  5  1  0
  5  6  2  0
  6  4  1  0
  4  3  2  0
  3  1  1  0
M  END

$$$$
