No_3273-gen_results/8p0m/2024-11-27-11-27-31/
     RDKit          3D

 35 36  0  0  0  0  0  0  0  0999 V2000
  -28.0162   -0.8135   28.8779 C   0  0  0  0  0  0  0  0  0  0  0  0
  -27.0636   -0.1190   28.6079 C   0  0  0  0  0  0  0  0  0  0  0  0
  -27.0010    0.6913   27.4910 C   0  0  0  0  0  0  0  0  0  0  0  0
  -28.1420    0.8282   26.7994 C   0  0  0  0  0  0  0  0  0  0  0  0
  -29.3000   -0.2668   28.6529 C   0  0  0  0  0  0  0  0  0  0  0  0
  -29.3580    0.5961   27.4580 C   0  0  0  0  0  0  0  0  0  0  0  0
  -30.6162    0.9260   26.8393 C   0  0  0  0  0  0  0  0  0  0  0  0
  -31.0114    1.5037   25.9900 Cl  0  0  0  0  0  0  0  0  0  0  0  0
  -31.6695    0.2386   27.5819 O   0  0  0  0  0  0  0  0  0  0  0  0
  -25.6505    1.1456   26.9121 C   0  0  0  0  0  0  0  0  0  0  0  0
  -24.7796    1.8885   27.8198 C   0  0  0  0  0  0  0  0  0  0  0  0
  -23.7506    1.3314   28.3822 C   0  0  0  0  0  0  0  0  0  0  0  0
  -22.8578    0.8305   28.3203 C   0  0  0  0  0  0  0  0  0  0  0  0
  -21.6370    0.1349   28.6079 C   0  0  0  0  0  0  0  0  0  0  0  0
  -25.1558    3.3019   28.0927 C   0  0  0  0  0  0  0  0  0  0  0  0
  -24.8262    4.1874   27.3847 O   0  0  0  0  0  0  0  0  0  0  0  0
  -25.5298    3.5704   29.3414 O   0  0  0  0  0  0  0  0  0  0  0  0
  -27.9523   -1.6468   30.1933 C   0  0  0  0  0  0  0  0  0  0  0  0
  -28.5603   -1.7094   31.0599 O   0  0  0  0  0  0  0  0  0  0  0  0
  -26.7378   -2.3946   30.1418 N   0  0  0  0  0  0  0  0  0  0  0  0
  -25.6257   -2.2292   29.3443 C   0  0  0  0  0  0  0  0  0  0  0  0
  -24.7248   -3.1804   29.2249 C   0  0  0  0  0  0  0  0  0  0  0  0
  -23.4851   -2.9002   28.5794 C   0  0  0  0  0  0  0  0  0  0  0  0
  -25.1385   -4.5498   29.3165 C   0  0  0  0  0  0  0  0  0  0  0  0
  -24.2435   -5.4967   28.8445 N   0  0  0  0  0  0  0  0  0  0  0  0
  -26.2325   -4.8980   29.7152 F   0  0  0  0  0  0  0  0  0  0  0  0
  -32.5498   -0.4812   26.9426 C   0  0  0  0  0  0  0  0  0  0  0  0
  -33.4784   -1.0513   27.8782 C   0  0  0  0  0  0  0  0  0  0  0  0
  -34.2358   -1.9965   27.5169 C   0  0  0  0  0  0  0  0  0  0  0  0
  -34.2536   -2.3738   26.1802 C   0  0  0  0  0  0  0  0  0  0  0  0
  -33.3247   -1.9228   25.2617 C   0  0  0  0  0  0  0  0  0  0  0  0
  -32.4251   -1.0253   25.7227 C   0  0  0  0  0  0  0  0  0  0  0  0
  -26.1321    4.7800   29.6161 C   0  0  0  0  0  0  0  0  0  0  0  0
  -27.4424    4.6982   29.9569 C   0  0  0  0  0  0  0  0  0  0  0  0
  -27.7831    3.7771   30.5610 O   0  0  0  0  0  0  0  0  0  0  0  0
  1  2  1  0
  2  3  1  0
  3  4  1  0
  1  5  1  0
  4  6  1  0
  5  6  1  0
  6  7  1  0
  7  8  1  0
  7  9  1  0
  3 10  1  0
 10 11  1  0
 11 12  2  3
 12 13  1  0
 13 14  2  0
 11 15  1  0
 15 16  2  0
 15 17  1  0
  1 18  1  0
 18 19  2  0
 18 20  1  0
 20 21  1  0
 21 22  2  3
 22 23  1  0
 22 24  1  0
 24 25  2  0
 24 26  1  0
  9 27  1  0
 17 33  1  0
 33 34  1  0
 34 35  2  0
 27 28  2  0
 28 29  1  0
 29 30  2  0
 30 31  1  0
 31 32  2  0
 32 27  1  0
M  END

$$$$
