No_304-gen_results/8p0m/2024-11-27-11-27-31/
     RDKit          3D

 18 20  0  0  0  0  0  0  0  0999 V2000
  -28.0162   -0.8135   28.8779 C   0  0  0  0  0  0  0  0  0  0  0  0
  -28.4690   -0.7850   29.8287 C   0  0  0  0  0  0  0  0  0  0  0  0
  -28.1816    0.4277   28.1134 C   0  0  0  0  0  0  0  0  0  0  0  0
  -27.4498    0.6435   26.8500 C   0  0  0  0  0  0  0  0  0  0  0  0
  -27.8596    1.4573   25.9076 C   0  0  0  0  0  0  0  0  0  0  0  0
  -29.4263    0.1097   30.4178 C   0  0  0  0  0  0  0  0  0  0  0  0
  -29.6233    1.2198   29.7351 C   0  0  0  0  0  0  0  0  0  0  0  0
  -28.9609    1.4529   28.5513 C   0  0  0  0  0  0  0  0  0  0  0  0
  -28.7869    2.5467   26.3167 C   0  0  0  0  0  0  0  0  0  0  0  0
  -29.4265    2.4288   27.5639 C   0  0  0  0  0  0  0  0  0  0  0  0
  -26.2731   -0.5166   26.3400 Cl  0  0  0  0  0  0  0  0  0  0  0  0
  -28.1959   -2.2958   30.9382 Cl  0  0  0  0  0  0  0  0  0  0  0  0
  -30.5827    2.1599   30.2319 N   0  0  0  0  0  0  0  0  0  0  0  0
  -31.6639    1.8755   30.7699 C   0  0  0  0  0  0  0  0  0  0  0  0
  -32.4763    2.9396   31.1705 C   0  0  0  0  0  0  0  0  0  0  0  0
  -30.0115    3.3872   30.8357 C   0  0  0  0  0  0  0  0  0  0  0  0
  -30.7989    4.4575   31.0173 C   0  0  0  0  0  0  0  0  0  0  0  0
  -32.0295    4.1611   31.5452 C   0  0  0  0  0  0  0  0  0  0  0  0
  4 11  1  0
  2 12  1  0
  7 13  1  0
 13 14  1  0
 13 16  1  0
 15 18  1  0
 17 18  1  0
 14 15  1  0
 17 16  1  0
  3  4  2  0
  4  5  1  0
  5  9  2  0
  9 10  1  0
 10  8  2  0
  1  2  2  0
  2  6  1  0
  6  7  2  0
  7  8  1  0
  8  3  1  0
  3  1  1  0
M  END

$$$$
