No_383-gen_results/8p0m/2024-11-27-11-27-31/
     RDKit          3D

 21 22  0  0  0  0  0  0  0  0999 V2000
  -28.0162   -0.8135   28.8779 C   0  0  0  0  0  0  0  0  0  0  0  0
  -27.0636   -0.1190   28.6079 C   0  0  0  0  0  0  0  0  0  0  0  0
  -25.7647   -0.3897   29.0360 C   0  0  0  0  0  0  0  0  0  0  0  0
  -25.5296   -1.5302   29.9014 C   0  0  0  0  0  0  0  0  0  0  0  0
  -26.6888   -2.2893   30.1810 C   0  0  0  0  0  0  0  0  0  0  0  0
  -27.8727   -1.9508   29.7373 C   0  0  0  0  0  0  0  0  0  0  0  0
  -24.5491    0.4100   28.7341 C   0  0  0  0  0  0  0  0  0  0  0  0
  -24.4789    1.1871   27.6843 C   0  0  0  0  0  0  0  0  0  0  0  0
  -23.2830    1.8356   27.3522 C   0  0  0  0  0  0  0  0  0  0  0  0
  -22.1028    1.6619   28.0350 C   0  0  0  0  0  0  0  0  0  0  0  0
  -23.3238    0.1535   29.4730 C   0  0  0  0  0  0  0  0  0  0  0  0
  -22.1169    0.8126   29.1066 C   0  0  0  0  0  0  0  0  0  0  0  0
  -28.9558   -2.7100   30.0971 O   0  0  0  0  0  0  0  0  0  0  0  0
  -30.0671   -2.1385   30.5955 C   0  0  0  0  0  0  0  0  0  0  0  0
  -31.1663   -2.6927   30.1419 C   0  0  0  0  0  0  0  0  0  0  0  0
  -32.0528   -2.1199   29.6576 O   0  0  0  0  0  0  0  0  0  0  0  0
  -31.3495   -4.0341   30.2183 O   0  0  0  0  0  0  0  0  0  0  0  0
  -23.3205    2.9447   25.9862 Cl  0  0  0  0  0  0  0  0  0  0  0  0
  -29.9541   -2.1858   32.1638 C   0  0  0  0  0  0  0  0  0  0  0  0
  -29.9752   -3.0757   32.8506 C   0  0  0  0  0  0  0  0  0  0  0  0
  -30.1489   -4.1916   32.5843 C   0  0  0  0  0  0  0  0  0  0  0  0
  3  7  1  0
  6 13  1  0
 13 14  1  0
 14 15  1  0
 15 16  1  0
 15 17  2  0
  9 18  1  0
 14 19  1  0
 19 20  1  0
 20 21  2  0
  7  8  2  0
  8  9  1  0
  9 10  2  0
 10 12  1  0
 12 11  2  0
 11  7  1  0
  1  2  2  0
  2  3  1  0
  3  4  2  0
  4  5  1  0
  5  6  2  0
  6  1  1  0
M  END

$$$$
