No_3682-gen_results/8p0m/2024-11-27-11-27-31/
     RDKit          3D

 33 35  0  0  0  0  0  0  0  0999 V2000
  -28.0544   -1.0498   28.7246 N   0  0  0  0  0  0  0  0  0  0  0  0
  -27.7460   -0.0733   29.0098 C   0  0  0  0  0  0  0  0  0  0  0  0
  -27.1737    0.7565   28.1070 C   0  0  0  0  0  0  0  0  0  0  0  0
  -25.8200    1.2606   28.2149 C   0  0  0  0  0  0  0  0  0  0  0  0
  -24.8932    0.8355   27.3882 C   0  0  0  0  0  0  0  0  0  0  0  0
  -23.5082    1.0340   27.6366 C   0  0  0  0  0  0  0  0  0  0  0  0
  -22.7182    0.3749   28.2967 C   0  0  0  0  0  0  0  0  0  0  0  0
  -23.2251   -0.7061   29.1132 C   0  0  0  0  0  0  0  0  0  0  0  0
  -23.7504   -0.8799   30.0259 C   0  0  0  0  0  0  0  0  0  0  0  0
  -24.2412   -2.1438   30.5236 C   0  0  0  0  0  0  0  0  0  0  0  0
  -24.3669   -3.0912   29.5450 C   0  0  0  0  0  0  0  0  0  0  0  0
  -23.9215   -2.9600   28.3190 C   0  0  0  0  0  0  0  0  0  0  0  0
  -23.2884   -1.8243   28.0768 C   0  0  0  0  0  0  0  0  0  0  0  0
  -27.8222    0.3458   30.2464 O   0  0  0  0  0  0  0  0  0  0  0  0
  -27.9142    1.1476   26.9301 C   0  0  0  0  0  0  0  0  0  0  0  0
  -25.2040    0.1765   26.1722 C   0  0  0  0  0  0  0  0  0  0  0  0
  -27.5696    0.5685   25.7266 C   0  0  0  0  0  0  0  0  0  0  0  0
  -26.2452    0.4129   25.2574 C   0  0  0  0  0  0  0  0  0  0  0  0
  -23.1880    2.3542   27.1699 N   0  0  0  0  0  0  0  0  0  0  0  0
  -21.2737    0.6609   28.5116 C   0  0  0  0  0  0  0  0  0  0  0  0
  -28.4586    0.6706   24.5936 C   0  0  0  0  0  0  0  0  0  0  0  0
  -29.7925    0.4381   25.0097 C   0  0  0  0  0  0  0  0  0  0  0  0
  -30.7122    0.2620   24.0808 N   0  0  0  0  0  0  0  0  0  0  0  0
  -31.9837    0.3033   24.2247 C   0  0  0  0  0  0  0  0  0  0  0  0
  -32.6136    0.0014   25.0528 C   0  0  0  0  0  0  0  0  0  0  0  0
  -31.8048    0.0150   26.4016 C   0  0  0  0  0  0  0  0  0  0  0  0
  -30.4364    0.2606   26.3240 C   0  0  0  0  0  0  0  0  0  0  0  0
  -32.4709   -0.1373   27.7014 C   0  0  0  0  0  0  0  0  0  0  0  0
  -32.6959    0.7892   28.4075 O   0  0  0  0  0  0  0  0  0  0  0  0
  -32.6716   -1.3591   28.0481 O   0  0  0  0  0  0  0  0  0  0  0  0
  -28.4537   -2.0861   29.8760 C   0  0  0  0  0  0  0  0  0  0  0  0
  -27.6956   -3.1809   29.9742 C   0  0  0  0  0  0  0  0  0  0  0  0
  -28.2061   -4.2862   30.7093 N   0  0  0  0  0  0  0  0  0  0  0  0
  1  2  1  0
  2  3  1  0
  3  4  1  0
  4  5  2  0
  5  6  1  0
  6  7  2  3
  7  8  1  0
  2 14  2  0
  3 15  1  0
  5 16  1  0
 15 17  1  0
 16 18  1  0
 17 18  2  0
  6 19  1  0
  7 20  1  0
 17 21  1  0
 21 22  1  0
 26 28  1  0
 28 29  2  0
 28 30  1  0
  1 31  1  0
 31 32  1  0
 32 33  2  0
 22 23  2  0
 23 24  1  0
 24 25  2  0
 25 26  1  0
 26 27  2  0
 27 22  1  0
  8  9  2  0
  9 10  1  0
 10 11  2  0
 11 12  1  0
 12 13  2  0
 13  8  1  0
M  END

$$$$
