No_3094-gen_results/8p0m/2024-11-27-11-27-31/
     RDKit          3D

 26 27  0  0  0  0  0  0  0  0999 V2000
  -28.0162   -0.8135   28.8779 C   0  0  0  0  0  0  0  0  0  0  0  0
  -27.0636   -0.1189   28.6079 C   0  0  0  0  0  0  0  0  0  0  0  0
  -25.7923   -0.4302   29.0761 C   0  0  0  0  0  0  0  0  0  0  0  0
  -24.5456    0.3494   28.8225 C   0  0  0  0  0  0  0  0  0  0  0  0
  -24.6586    1.4196   27.8878 C   0  0  0  0  0  0  0  0  0  0  0  0
  -25.9471    1.6811   27.3792 C   0  0  0  0  0  0  0  0  0  0  0  0
  -27.0439    0.9739   27.6871 C   0  0  0  0  0  0  0  0  0  0  0  0
  -28.5499   -0.5703   30.0609 O   0  0  0  0  0  0  0  0  0  0  0  0
  -23.4455    2.1413   27.6104 C   0  0  0  0  0  0  0  0  0  0  0  0
  -22.4877    1.9553   28.1818 F   0  0  0  0  0  0  0  0  0  0  0  0
  -23.1468    1.9169   26.1919 F   0  0  0  0  0  0  0  0  0  0  0  0
  -23.7896    3.4989   27.5713 F   0  0  0  0  0  0  0  0  0  0  0  0
  -29.7600   -0.4597   30.3967 C   0  0  0  0  0  0  0  0  0  0  0  0
  -30.2563   -0.0666   31.2029 C   0  0  0  0  0  0  0  0  0  0  0  0
  -30.7501   -1.0822   29.3688 C   0  0  0  0  0  0  0  0  0  0  0  0
  -32.0787   -1.0900   29.5153 C   0  0  0  0  0  0  0  0  0  0  0  0
  -31.6662    0.0670   31.5995 C   0  0  0  0  0  0  0  0  0  0  0  0
  -32.5730   -0.4814   30.6758 C   0  0  0  0  0  0  0  0  0  0  0  0
  -28.3222    1.3466   27.1020 C   0  0  0  0  0  0  0  0  0  0  0  0
  -28.8307    0.9451   26.1394 O   0  0  0  0  0  0  0  0  0  0  0  0
  -28.7445    2.6050   27.5897 N   0  0  0  0  0  0  0  0  0  0  0  0
  -29.9789    3.2009   27.2302 C   0  0  0  0  0  0  0  0  0  0  0  0
  -32.8991   -1.5722   28.6188 O   0  0  0  0  0  0  0  0  0  0  0  0
  -32.5638   -1.9012   27.4546 C   0  0  0  0  0  0  0  0  0  0  0  0
  -32.6965   -3.2599   27.1291 C   0  0  0  0  0  0  0  0  0  0  0  0
  -32.1272   -3.9685   27.6495 O   0  0  0  0  0  0  0  0  0  0  0  0
  1  2  1  0
  1  8  1  0
  5  9  1  0
  9 10  1  0
  9 11  1  0
  9 12  1  0
  8 13  1  0
  7 19  1  0
 19 20  2  0
 19 21  1  0
 21 22  1  0
 16 23  1  0
 23 24  1  0
 24 25  2  3
 25 26  1  0
  2  3  2  0
  3  4  1  0
  4  5  2  0
  5  6  1  0
  6  7  2  0
  7  2  1  0
 13 14  2  0
 14 17  1  0
 17 18  2  0
 18 16  1  0
 16 15  2  0
 15 13  1  0
M  END

$$$$
