No_3329-gen_results/8p0m/2024-11-27-11-27-31/
     RDKit          3D

 19 20  0  0  0  0  0  0  0  0999 V2000
  -28.0162   -0.8135   28.8779 C   0  0  0  0  0  0  0  0  0  0  0  0
  -28.4690   -0.7850   29.8287 C   0  0  0  0  0  0  0  0  0  0  0  0
  -28.1960    0.3478   28.0550 C   0  0  0  0  0  0  0  0  0  0  0  0
  -29.0191    1.3501   28.3782 C   0  0  0  0  0  0  0  0  0  0  0  0
  -29.4107    0.1803   30.3782 C   0  0  0  0  0  0  0  0  0  0  0  0
  -29.6059    1.2495   29.6193 C   0  0  0  0  0  0  0  0  0  0  0  0
  -27.5003    0.3576   26.8164 O   0  0  0  0  0  0  0  0  0  0  0  0
  -26.4976    1.3388   26.6595 C   0  0  0  0  0  0  0  0  0  0  0  0
  -25.2287    0.7278   26.6101 C   0  0  0  0  0  0  0  0  0  0  0  0
  -24.7403   -0.0443   27.4738 C   0  0  0  0  0  0  0  0  0  0  0  0
  -24.1165    0.2969   28.7211 C   0  0  0  0  0  0  0  0  0  0  0  0
  -23.5386   -0.6304   29.6115 C   0  0  0  0  0  0  0  0  0  0  0  0
  -22.7887   -0.2303   30.7094 C   0  0  0  0  0  0  0  0  0  0  0  0
  -23.9676    1.6629   29.2230 C   0  0  0  0  0  0  0  0  0  0  0  0
  -24.5761    2.6524   28.4042 N   0  0  0  0  0  0  0  0  0  0  0  0
  -22.9701    1.0605   31.1693 C   0  0  0  0  0  0  0  0  0  0  0  0
  -23.4932    2.0488   30.4393 C   0  0  0  0  0  0  0  0  0  0  0  0
  -25.1782    3.7774   28.7284 C   0  0  0  0  0  0  0  0  0  0  0  0
  -25.4946    4.7687   27.7651 C   0  0  0  0  0  0  0  0  0  0  0  0
  3  7  1  0
  7  8  1  0
  8  9  1  0
  9 10  1  0
 14 15  1  0
 15 18  1  0
 18 19  2  0
 10 11  1  0
 11 12  2  0
 12 13  1  0
 13 16  2  0
 16 17  1  0
 17 14  2  0
 14 11  1  0
  1  2  2  0
  2  5  1  0
  5  6  2  0
  6  4  1  0
  4  3  2  0
  3  1  1  0
M  END

$$$$
