No_3736-gen_results/8p0m/2024-11-27-11-27-31/
     RDKit          3D

 18 19  0  0  0  0  0  0  0  0999 V2000
  -28.1229   -1.3353   28.4874 O   0  0  0  0  0  0  0  0  0  0  0  0
  -27.4806   -0.4044   28.7094 C   0  0  0  0  0  0  0  0  0  0  0  0
  -27.1904    0.2460   29.5268 C   0  0  0  0  0  0  0  0  0  0  0  0
  -26.6021   -0.1576   27.5515 N   0  0  0  0  0  0  0  0  0  0  0  0
  -25.6421    0.9031   27.5822 C   0  0  0  0  0  0  0  0  0  0  0  0
  -25.5004    1.6142   28.7368 C   0  0  0  0  0  0  0  0  0  0  0  0
  -26.2674    1.2888   29.8086 C   0  0  0  0  0  0  0  0  0  0  0  0
  -24.8851    1.1487   26.4884 N   0  0  0  0  0  0  0  0  0  0  0  0
  -23.8891    2.1357   26.6599 C   0  0  0  0  0  0  0  0  0  0  0  0
  -23.6784    2.7954   27.7133 N   0  0  0  0  0  0  0  0  0  0  0  0
  -24.4110    2.5980   28.7501 C   0  0  0  0  0  0  0  0  0  0  0  0
  -23.1052    2.3871   25.5451 N   0  0  0  0  0  0  0  0  0  0  0  0
  -28.0663   -0.0325   30.8939 C   0  0  0  0  0  0  0  0  0  0  0  0
  -27.7296    0.0830   31.9339 C   0  0  0  0  0  0  0  0  0  0  0  0
  -27.6785    0.1912   32.9380 C   0  0  0  0  0  0  0  0  0  0  0  0
  -27.2214    0.5497   34.2588 C   0  0  0  0  0  0  0  0  0  0  0  0
  -26.7697    0.5746   35.3043 C   0  0  0  0  0  0  0  0  0  0  0  0
  -26.8501    1.7759   35.6398 N   0  0  0  0  0  0  0  0  0  0  0  0
  1  2  2  0
  2  3  1  0
  2  4  1  0
  4  5  1  0
  6  7  1  0
  9 12  1  0
  3 13  1  0
 13 14  2  3
 14 15  1  0
 15 16  2  3
 16 17  1  0
 17 18  1  0
  3  7  1  0
  5  8  2  0
  8  9  1  0
  9 10  2  0
 10 11  1  0
 11  6  2  0
  6  5  1  0
M  END

$$$$
