No_340-gen_results/8p0m/2024-11-27-11-27-31/
     RDKit          3D

 15 15  0  0  0  0  0  0  0  0999 V2000
  -28.0727   -1.2542   28.5316 F   0  0  0  0  0  0  0  0  0  0  0  0
  -27.3591   -0.3792   28.7224 C   0  0  0  0  0  0  0  0  0  0  0  0
  -26.8100    0.1885   27.6513 C   0  0  0  0  0  0  0  0  0  0  0  0
  -25.6015    0.9529   27.6828 C   0  0  0  0  0  0  0  0  0  0  0  0
  -25.0371    1.2332   29.0000 C   0  0  0  0  0  0  0  0  0  0  0  0
  -25.6162    0.5855   30.0870 C   0  0  0  0  0  0  0  0  0  0  0  0
  -26.6061   -0.2296   29.9624 C   0  0  0  0  0  0  0  0  0  0  0  0
  -24.0460    2.0502   29.0717 F   0  0  0  0  0  0  0  0  0  0  0  0
  -27.2441    0.0088   26.4268 F   0  0  0  0  0  0  0  0  0  0  0  0
  -25.0754    1.6053   26.6779 F   0  0  0  0  0  0  0  0  0  0  0  0
  -27.2737   -1.0130   31.4036 Cl  0  0  0  0  0  0  0  0  0  0  0  0
  -24.9259    0.9200   31.4403 C   0  0  0  0  0  0  0  0  0  0  0  0
  -24.7976    1.8713   31.9692 F   0  0  0  0  0  0  0  0  0  0  0  0
  -23.5849    0.3707   31.3614 F   0  0  0  0  0  0  0  0  0  0  0  0
  -25.5316    0.1997   32.4244 F   0  0  0  0  0  0  0  0  0  0  0  0
  1  2  1  0
  5  8  1  0
  3  9  1  0
  4 10  1  0
  7 11  1  0
  6 12  1  0
 12 13  1  0
 12 14  1  0
 12 15  1  0
  2  3  2  0
  3  4  1  0
  4  5  2  0
  5  6  1  0
  6  7  2  0
  7  2  1  0
M  END

$$$$
