No_3531-gen_results/8p0m/2024-11-27-11-27-31/
     RDKit          3D

 32 36  0  0  0  0  0  0  0  0999 V2000
  -28.0162   -0.8135   28.8779 C   0  0  0  0  0  0  0  0  0  0  0  0
  -28.4690   -0.7850   29.8287 C   0  0  0  0  0  0  0  0  0  0  0  0
  -26.5042   -0.7777   28.8766 C   0  0  0  0  0  0  0  0  0  0  0  0
  -25.8103   -0.8531   30.1028 C   0  0  0  0  0  0  0  0  0  0  0  0
  -27.9906   -0.8916   31.2257 C   0  0  0  0  0  0  0  0  0  0  0  0
  -26.6042   -0.8676   31.2652 C   0  0  0  0  0  0  0  0  0  0  0  0
  -29.9385   -0.8194   29.8358 O   0  0  0  0  0  0  0  0  0  0  0  0
  -30.5356   -0.1119   28.9448 C   0  0  0  0  0  0  0  0  0  0  0  0
  -31.4501   -0.5433   28.1111 C   0  0  0  0  0  0  0  0  0  0  0  0
  -31.8722   -1.9167   28.3390 C   0  0  0  0  0  0  0  0  0  0  0  0
  -32.7506   -2.5838   27.3852 C   0  0  0  0  0  0  0  0  0  0  0  0
  -33.1181   -1.8430   26.2089 C   0  0  0  0  0  0  0  0  0  0  0  0
  -32.6730   -0.5572   25.9871 C   0  0  0  0  0  0  0  0  0  0  0  0
  -31.7864    0.0770   26.9108 C   0  0  0  0  0  0  0  0  0  0  0  0
  -30.2203    1.1570   28.9301 F   0  0  0  0  0  0  0  0  0  0  0  0
  -24.3795   -0.8127   30.1166 C   0  0  0  0  0  0  0  0  0  0  0  0
  -23.6340   -0.4285   29.0450 C   0  0  0  0  0  0  0  0  0  0  0  0
  -22.1880   -0.3164   29.1903 C   0  0  0  0  0  0  0  0  0  0  0  0
  -21.4461    0.1884   28.1118 C   0  0  0  0  0  0  0  0  0  0  0  0
  -22.1031    1.1116   27.2521 C   0  0  0  0  0  0  0  0  0  0  0  0
  -23.5100    1.2629   27.2833 C   0  0  0  0  0  0  0  0  0  0  0  0
  -24.1562    2.1849   26.4791 C   0  0  0  0  0  0  0  0  0  0  0  0
  -24.1802    0.5785   28.1806 C   0  0  0  0  0  0  0  0  0  0  0  0
  -25.4708    2.1645   26.1927 C   0  0  0  0  0  0  0  0  0  0  0  0
  -26.2389    3.0033   25.6109 C   0  0  0  0  0  0  0  0  0  0  0  0
  -27.6443    2.8282   25.5188 C   0  0  0  0  0  0  0  0  0  0  0  0
  -28.1034    1.5957   25.9213 C   0  0  0  0  0  0  0  0  0  0  0  0
  -27.3247    0.5846   26.4206 C   0  0  0  0  0  0  0  0  0  0  0  0
  -25.9654    0.8522   26.5719 C   0  0  0  0  0  0  0  0  0  0  0  0
  -25.2718    0.0797   27.5989 C   0  0  0  0  0  0  0  0  0  0  0  0
  -26.1249   -2.0530   28.2006 O   0  0  0  0  0  0  0  0  0  0  0  0
  -24.6402   -0.9683   26.6826 C   0  0  0  0  0  0  0  0  0  0  0  0
  2  7  1  0
  7  8  1  0
  8 15  1  0
  4 16  1  0
  3 31  1  0
 30 32  1  0
 16 17  1  0
  8  9  1  0
 21 22  2  0
 22 24  1  0
 29 30  1  0
 30 23  2  0
 24 25  2  0
 25 26  1  0
 26 27  2  0
 27 28  1  0
 28 29  2  0
 29 24  1  0
 17 18  2  0
 18 19  1  0
 19 20  2  0
 20 21  1  0
 21 23  1  0
 23 17  1  0
  9 10  2  0
 10 11  1  0
 11 12  2  0
 12 13  1  0
 13 14  2  0
 14  9  1  0
  1  2  2  0
  2  5  1  0
  5  6  2  0
  6  4  1  0
  4  3  2  0
  3  1  1  0
M  END

$$$$
