No_3832-gen_results/8p0m/2024-11-27-11-27-31/
     RDKit          3D

 27 29  0  0  0  0  0  0  0  0999 V2000
  -28.0162   -0.8135   28.8779 C   0  0  0  0  0  0  0  0  0  0  0  0
  -27.0636   -0.1190   28.6079 C   0  0  0  0  0  0  0  0  0  0  0  0
  -26.9716    0.7139   27.5060 C   0  0  0  0  0  0  0  0  0  0  0  0
  -25.8205    1.4909   27.1160 C   0  0  0  0  0  0  0  0  0  0  0  0
  -24.6562    1.4242   27.9180 C   0  0  0  0  0  0  0  0  0  0  0  0
  -23.4598    2.1165   27.6160 C   0  0  0  0  0  0  0  0  0  0  0  0
  -23.5068    2.7076   26.2939 C   0  0  0  0  0  0  0  0  0  0  0  0
  -25.7733   -0.1954   29.4398 C   0  0  0  0  0  0  0  0  0  0  0  0
  -24.6392    0.5412   29.1339 C   0  0  0  0  0  0  0  0  0  0  0  0
  -29.1966   -0.0570   29.3805 C   0  0  0  0  0  0  0  0  0  0  0  0
  -29.4768    0.0563   30.4023 N   0  0  0  0  0  0  0  0  0  0  0  0
  -29.9237    0.3449   28.3672 O   0  0  0  0  0  0  0  0  0  0  0  0
  -30.1274    0.5456   31.1088 C   0  0  0  0  0  0  0  0  0  0  0  0
  -22.2406    1.9010   28.2240 C   0  0  0  0  0  0  0  0  0  0  0  0
  -30.1722    0.4110   32.4652 C   0  0  0  0  0  0  0  0  0  0  0  0
  -31.1497    1.4833   30.5936 C   0  0  0  0  0  0  0  0  0  0  0  0
  -32.0779    2.1849   31.4385 C   0  0  0  0  0  0  0  0  0  0  0  0
  -31.0891    1.0864   33.3701 C   0  0  0  0  0  0  0  0  0  0  0  0
  -32.0184    1.9576   32.7915 C   0  0  0  0  0  0  0  0  0  0  0  0
  -33.0042    3.1008   30.8542 C   0  0  0  0  0  0  0  0  0  0  0  0
  -33.6574    3.1931   30.0399 C   0  0  0  0  0  0  0  0  0  0  0  0
  -33.7773    2.0046   29.1199 C   0  0  0  0  0  0  0  0  0  0  0  0
  -34.5881    2.0394   27.9212 C   0  0  0  0  0  0  0  0  0  0  0  0
  -35.2430    3.2339   27.7299 C   0  0  0  0  0  0  0  0  0  0  0  0
  -35.1881    4.3372   28.4815 C   0  0  0  0  0  0  0  0  0  0  0  0
  -34.4144    4.3705   29.5963 C   0  0  0  0  0  0  0  0  0  0  0  0
  -32.9261    4.2595   31.6962 F   0  0  0  0  0  0  0  0  0  0  0  0
  1  2  2  3
  2  3  1  0
  3  4  1  0
  4  5  1  0
  5  6  2  3
  6  7  1  0
  2  8  1  0
  5  9  1  0
  8  9  1  0
  1 10  1  0
 10 11  1  0
 10 12  2  0
 11 13  1  0
  6 14  1  0
 17 20  1  0
 20 27  1  0
 20 21  1  0
 13 15  2  0
 15 18  1  0
 18 19  2  0
 19 17  1  0
 17 16  2  0
 16 13  1  0
 21 22  2  0
 22 23  1  0
 23 24  2  0
 24 25  1  0
 25 26  2  0
 26 21  1  0
M  END

$$$$
