No_3039-gen_results/8p0m/2024-11-27-11-27-31/
     RDKit          3D

 14 16  0  0  0  0  0  0  0  0999 V2000
  -28.0162   -0.8135   28.8779 C   0  0  0  0  0  0  0  0  0  0  0  0
  -27.0636   -0.1189   28.6079 C   0  0  0  0  0  0  0  0  0  0  0  0
  -26.9849    0.5972   27.5218 N   0  0  0  0  0  0  0  0  0  0  0  0
  -27.9606   -1.5421   30.1660 C   0  0  0  0  0  0  0  0  0  0  0  0
  -26.7813   -1.6198   30.8836 C   0  0  0  0  0  0  0  0  0  0  0  0
  -25.6460   -0.9698   30.4630 C   0  0  0  0  0  0  0  0  0  0  0  0
  -25.7563   -0.1767   29.2863 C   0  0  0  0  0  0  0  0  0  0  0  0
  -25.9019    0.8964   26.8088 C   0  0  0  0  0  0  0  0  0  0  0  0
  -25.8610    1.5597   25.6485 C   0  0  0  0  0  0  0  0  0  0  0  0
  -28.1677    1.0524   26.8978 C   0  0  0  0  0  0  0  0  0  0  0  0
  -28.2222    1.7674   25.7003 C   0  0  0  0  0  0  0  0  0  0  0  0
  -27.0001    2.0336   25.0633 C   0  0  0  0  0  0  0  0  0  0  0  0
  -24.5664    0.4101   28.7843 C   0  0  0  0  0  0  0  0  0  0  0  0
  -24.5868    0.8172   27.4983 C   0  0  0  0  0  0  0  0  0  0  0  0
  2  3  1  0
  3  8  1  0
  3 10  1  0
  9 12  1  0
 11 12  1  0
  7 13  1  0
  8 14  1  0
 13 14  1  0
  8  9  1  0
 11 10  1  0
  1  2  2  0
  2  7  1  0
  7  6  2  0
  6  5  1  0
  5  4  2  0
  4  1  1  0
M  END

$$$$
