No_3554-gen_results/8p0m/2024-11-27-11-27-31/
     RDKit          3D

 30 32  0  0  0  0  0  0  0  0999 V2000
  -28.0162   -0.8135   28.8779 C   0  0  0  0  0  0  0  0  0  0  0  0
  -27.0636   -0.1189   28.6079 C   0  0  0  0  0  0  0  0  0  0  0  0
  -25.7647   -0.3897   29.0360 C   0  0  0  0  0  0  0  0  0  0  0  0
  -25.5296   -1.5302   29.9014 C   0  0  0  0  0  0  0  0  0  0  0  0
  -26.6577   -2.2915   30.2035 C   0  0  0  0  0  0  0  0  0  0  0  0
  -27.8548   -1.9555   29.7630 C   0  0  0  0  0  0  0  0  0  0  0  0
  -24.5349    0.4128   28.7431 C   0  0  0  0  0  0  0  0  0  0  0  0
  -24.4907    1.1615   27.8504 O   0  0  0  0  0  0  0  0  0  0  0  0
  -23.6004    0.4793   29.7120 O   0  0  0  0  0  0  0  0  0  0  0  0
  -29.0096   -2.8111   30.1893 C   0  0  0  0  0  0  0  0  0  0  0  0
  -28.8504   -4.0941   30.5102 N   0  0  0  0  0  0  0  0  0  0  0  0
  -29.8438   -5.0185   30.3462 C   0  0  0  0  0  0  0  0  0  0  0  0
  -30.2585   -5.7042   31.5005 C   0  0  0  0  0  0  0  0  0  0  0  0
  -31.5006   -5.3933   31.9057 C   0  0  0  0  0  0  0  0  0  0  0  0
  -31.5968   -4.2711   32.6187 C   0  0  0  0  0  0  0  0  0  0  0  0
  -32.1459   -6.6082   32.7334 C   0  0  0  0  0  0  0  0  0  0  0  0
  -32.9611   -3.8628   33.0116 C   0  0  0  0  0  0  0  0  0  0  0  0
  -33.6155   -4.8535   33.8533 C   0  0  0  0  0  0  0  0  0  0  0  0
  -33.6167   -6.1635   33.2028 C   0  0  0  0  0  0  0  0  0  0  0  0
  -30.1306   -2.2931   30.2542 O   0  0  0  0  0  0  0  0  0  0  0  0
  -32.8960   -2.4681   33.7362 C   0  0  0  0  0  0  0  0  0  0  0  0
  -32.9209   -1.5239   32.9511 O   0  0  0  0  0  0  0  0  0  0  0  0
  -32.8725   -2.3703   34.9760 O   0  0  0  0  0  0  0  0  0  0  0  0
  -33.6814   -3.7065   31.6684 C   0  0  0  0  0  0  0  0  0  0  0  0
  -33.7266   -2.7010   31.0208 C   0  0  0  0  0  0  0  0  0  0  0  0
  -34.3863   -2.5681   29.6529 C   0  0  0  0  0  0  0  0  0  0  0  0
  -35.1135   -3.6498   29.3548 C   0  0  0  0  0  0  0  0  0  0  0  0
  -35.1096   -4.8104   30.1353 C   0  0  0  0  0  0  0  0  0  0  0  0
  -34.4250   -4.8215   31.2304 C   0  0  0  0  0  0  0  0  0  0  0  0
  -34.4833   -6.3564   32.3024 O   0  0  0  0  0  0  0  0  0  0  0  0
  3  7  1  0
  7  8  2  0
  7  9  1  0
  6 10  1  0
 10 11  1  0
 11 12  1  0
 12 13  1  0
 13 14  1  0
 14 16  1  0
 15 17  1  0
 17 18  1  0
 16 19  1  0
 18 19  1  0
 10 20  2  0
 17 21  1  0
 21 22  2  0
 21 23  1  0
 17 24  1  0
 19 30  1  0
 15 14  1  0
  1  2  2  0
  2  3  1  0
  3  4  2  0
  4  5  1  0
  5  6  2  0
  6  1  1  0
 24 25  2  0
 25 26  1  0
 26 27  2  0
 27 28  1  0
 28 29  2  0
 29 24  1  0
M  END

$$$$
