No_3051-gen_results/8p0m/2024-11-27-11-27-31/
     RDKit          3D

 18 19  0  0  0  0  0  0  0  0999 V2000
  -28.0162   -0.8135   28.8779 C   0  0  0  0  0  0  0  0  0  0  0  0
  -27.0636   -0.1190   28.6079 C   0  0  0  0  0  0  0  0  0  0  0  0
  -25.7923   -0.4302   29.0761 C   0  0  0  0  0  0  0  0  0  0  0  0
  -24.5456    0.3494   28.8225 C   0  0  0  0  0  0  0  0  0  0  0  0
  -24.6586    1.4196   27.8878 C   0  0  0  0  0  0  0  0  0  0  0  0
  -25.9471    1.6811   27.3792 C   0  0  0  0  0  0  0  0  0  0  0  0
  -27.0439    0.9739   27.6871 C   0  0  0  0  0  0  0  0  0  0  0  0
  -28.6703   -0.4455   30.2080 C   0  0  0  0  0  0  0  0  0  0  0  0
  -28.5206    0.4800   30.7047 C   0  0  0  0  0  0  0  0  0  0  0  0
  -28.7084    1.1256   31.6359 C   0  0  0  0  0  0  0  0  0  0  0  0
  -28.9949    2.3349   32.3302 C   0  0  0  0  0  0  0  0  0  0  0  0
  -28.5810    2.3854   33.6867 C   0  0  0  0  0  0  0  0  0  0  0  0
  -28.1579    1.3352   34.3835 C   0  0  0  0  0  0  0  0  0  0  0  0
  -27.8884    0.1680   33.7812 C   0  0  0  0  0  0  0  0  0  0  0  0
  -28.0535    0.1550   32.7228 C   0  0  0  0  0  0  0  0  0  0  0  0
  -29.3655   -1.4820   30.7251 O   0  0  0  0  0  0  0  0  0  0  0  0
  -23.4445    2.1455   27.5508 C   0  0  0  0  0  0  0  0  0  0  0  0
  -22.2313    1.7339   28.0507 N   0  0  0  0  0  0  0  0  0  0  0  0
  1  2  1  0
  1  8  1  0
  8  9  1  0
  8 16  2  0
  5 17  1  0
 17 18  2  0
  9 10  1  0
  2  3  2  0
  3  4  1  0
  4  5  2  0
  5  6  1  0
  6  7  2  0
  7  2  1  0
 10 11  2  0
 11 12  1  0
 12 13  2  0
 13 14  1  0
 14 15  2  0
 15 10  1  0
M  END

$$$$
