No_3253-gen_results/8p0m/2024-11-27-11-27-31/
     RDKit          3D

 13 13  0  0  0  0  0  0  0  0999 V2000
  -28.0162   -0.8135   28.8779 C   0  0  0  0  0  0  0  0  0  0  0  0
  -28.4690   -0.7850   29.8287 C   0  0  0  0  0  0  0  0  0  0  0  0
  -26.5455   -0.8762   28.8500 C   0  0  0  0  0  0  0  0  0  0  0  0
  -25.8041   -1.0324   30.0571 C   0  0  0  0  0  0  0  0  0  0  0  0
  -30.0055   -0.7457   29.8978 C   0  0  0  0  0  0  0  0  0  0  0  0
  -26.5747   -1.0565   31.2005 C   0  0  0  0  0  0  0  0  0  0  0  0
  -27.9251   -0.9738   31.1683 C   0  0  0  0  0  0  0  0  0  0  0  0
  -30.5607   -0.3340   29.1001 O   0  0  0  0  0  0  0  0  0  0  0  0
  -30.6708   -1.2598   30.9854 O   0  0  0  0  0  0  0  0  0  0  0  0
  -24.3599   -1.0997   30.0491 C   0  0  0  0  0  0  0  0  0  0  0  0
  -23.9150   -2.0531   30.6122 F   0  0  0  0  0  0  0  0  0  0  0  0
  -23.8542    0.0211   30.7331 F   0  0  0  0  0  0  0  0  0  0  0  0
  -23.9313   -0.8294   28.7820 F   0  0  0  0  0  0  0  0  0  0  0  0
  2  5  1  0
  5  8  1  0
  5  9  2  0
  4 10  1  0
 10 11  1  0
 10 12  1  0
 10 13  1  0
  1  2  2  0
  2  7  1  0
  7  6  2  0
  6  4  1  0
  4  3  2  0
  3  1  1  0
M  END

$$$$
