No_3383-gen_results/8p0m/2024-11-27-11-27-31/
     RDKit          3D

 26 28  0  0  0  0  0  0  0  0999 V2000
  -28.0162   -0.8135   28.8779 C   0  0  0  0  0  0  0  0  0  0  0  0
  -27.0636   -0.1190   28.6079 C   0  0  0  0  0  0  0  0  0  0  0  0
  -25.7923   -0.4302   29.0761 C   0  0  0  0  0  0  0  0  0  0  0  0
  -24.5456    0.3494   28.8225 C   0  0  0  0  0  0  0  0  0  0  0  0
  -23.2409    0.0217   29.3323 C   0  0  0  0  0  0  0  0  0  0  0  0
  -27.8820   -1.8995   29.8633 C   0  0  0  0  0  0  0  0  0  0  0  0
  -26.6706   -2.3272   30.3212 C   0  0  0  0  0  0  0  0  0  0  0  0
  -25.5433   -1.5852   29.9316 C   0  0  0  0  0  0  0  0  0  0  0  0
  -22.1918    0.8302   29.0004 C   0  0  0  0  0  0  0  0  0  0  0  0
  -22.1472    1.7783   28.0287 C   0  0  0  0  0  0  0  0  0  0  0  0
  -24.5322    1.3987   27.8163 C   0  0  0  0  0  0  0  0  0  0  0  0
  -23.3620    2.0694   27.4607 C   0  0  0  0  0  0  0  0  0  0  0  0
  -28.9514   -2.8352   30.3485 C   0  0  0  0  0  0  0  0  0  0  0  0
  -30.0286   -2.5638   30.3198 O   0  0  0  0  0  0  0  0  0  0  0  0
  -28.5656   -3.9903   30.8457 O   0  0  0  0  0  0  0  0  0  0  0  0
  -23.4810    3.0204   26.5023 O   0  0  0  0  0  0  0  0  0  0  0  0
  -24.7853    3.2992   26.0703 C   0  0  0  0  0  0  0  0  0  0  0  0
  -27.1522    0.9178   27.7575 O   0  0  0  0  0  0  0  0  0  0  0  0
  -28.0331    1.0045   26.8072 C   0  0  0  0  0  0  0  0  0  0  0  0
  -27.6532    1.2559   25.5617 C   0  0  0  0  0  0  0  0  0  0  0  0
  -28.3139    1.1648   24.5961 C   0  0  0  0  0  0  0  0  0  0  0  0
  -29.7630    0.8762   24.6774 C   0  0  0  0  0  0  0  0  0  0  0  0
  -30.2133    0.6646   25.9367 C   0  0  0  0  0  0  0  0  0  0  0  0
  -29.3575    0.6793   27.0378 C   0  0  0  0  0  0  0  0  0  0  0  0
  -31.6637    0.3279   26.1137 C   0  0  0  0  0  0  0  0  0  0  0  0
  -32.3598    0.4711   26.9643 O   0  0  0  0  0  0  0  0  0  0  0  0
  3  4  1  0
  6 13  1  0
 13 14  1  0
 13 15  2  0
 12 16  1  0
 16 17  1  0
  2 18  1  0
 18 19  1  0
 23 25  1  0
 25 26  2  0
  1  2  2  0
  2  3  1  0
  3  8  2  0
  8  7  1  0
  7  6  2  0
  6  1  1  0
 19 20  2  0
 20 21  1  0
 21 22  2  0
 22 23  1  0
 23 24  2  0
 24 19  1  0
  4  5  2  0
  5  9  1  0
  9 10  2  0
 10 12  1  0
 12 11  2  0
 11  4  1  0
M  END

$$$$
