No_3774-gen_results/8p0m/2024-11-27-11-27-31/
     RDKit          3D

 19 20  0  0  0  0  0  0  0  0999 V2000
  -28.0162   -0.8135   28.8779 C   0  0  0  0  0  0  0  0  0  0  0  0
  -28.4690   -0.7850   29.8287 C   0  0  0  0  0  0  0  0  0  0  0  0
  -28.1816    0.4277   28.1134 C   0  0  0  0  0  0  0  0  0  0  0  0
  -28.9841    1.4155   28.5154 C   0  0  0  0  0  0  0  0  0  0  0  0
  -28.3375   -2.0481   30.7873 C   0  0  0  0  0  0  0  0  0  0  0  0
  -29.5615    1.2930   29.7416 C   0  0  0  0  0  0  0  0  0  0  0  0
  -30.3704    2.2942   30.2808 C   0  0  0  0  0  0  0  0  0  0  0  0
  -29.2364    0.1209   30.4333 C   0  0  0  0  0  0  0  0  0  0  0  0
  -27.6572   -2.0580   31.6526 O   0  0  0  0  0  0  0  0  0  0  0  0
  -29.2178   -3.0401   30.5677 O   0  0  0  0  0  0  0  0  0  0  0  0
  -31.2213    2.9255   30.1940 C   0  0  0  0  0  0  0  0  0  0  0  0
  -31.8316    3.9220   31.0608 C   0  0  0  0  0  0  0  0  0  0  0  0
  -31.2828    4.0285   32.3175 C   0  0  0  0  0  0  0  0  0  0  0  0
  -30.2159    3.2842   32.6702 C   0  0  0  0  0  0  0  0  0  0  0  0
  -29.6448    2.4230   31.8315 C   0  0  0  0  0  0  0  0  0  0  0  0
  -27.6098    0.4594   26.8627 F   0  0  0  0  0  0  0  0  0  0  0  0
  -31.9642    2.8707   28.8306 C   0  0  0  0  0  0  0  0  0  0  0  0
  -32.0641    3.6705   28.1392 O   0  0  0  0  0  0  0  0  0  0  0  0
  -32.4063    1.5954   28.5820 O   0  0  0  0  0  0  0  0  0  0  0  0
  2  5  1  0
  6  7  1  0
  5  9  2  0
  5 10  1  0
  3 16  1  0
 11 17  1  0
 17 18  2  0
 17 19  1  0
  1  2  2  0
  2  8  1  0
  8  6  2  0
  6  4  1  0
  4  3  2  0
  3  1  1  0
  7 11  2  0
 11 12  1  0
 12 13  2  0
 13 14  1  0
 14 15  2  0
 15  7  1  0
M  END

$$$$
