No_3091-gen_results/8p0m/2024-11-27-11-27-31/
     RDKit          3D

 11 11  0  0  0  0  0  0  0  0999 V2000
  -28.0162   -0.8135   28.8779 C   0  0  0  0  0  0  0  0  0  0  0  0
  -28.4690   -0.7850   29.8287 C   0  0  0  0  0  0  0  0  0  0  0  0
  -26.5042   -0.7777   28.8766 C   0  0  0  0  0  0  0  0  0  0  0  0
  -25.8103   -0.8531   30.1028 C   0  0  0  0  0  0  0  0  0  0  0  0
  -27.9906   -0.8916   31.2257 C   0  0  0  0  0  0  0  0  0  0  0  0
  -26.6042   -0.8676   31.2652 C   0  0  0  0  0  0  0  0  0  0  0  0
  -30.2656   -0.7636   29.6521 Cl  0  0  0  0  0  0  0  0  0  0  0  0
  -24.1162   -0.8403   30.1584 S   0  0  0  0  0  0  0  0  0  0  0  0
  -23.7076    0.2257   30.9591 O   0  0  0  0  0  0  0  0  0  0  0  0
  -23.6487   -0.6129   28.7322 O   0  0  0  0  0  0  0  0  0  0  0  0
  -23.6221   -2.2339   30.6768 N   0  0  0  0  0  0  0  0  0  0  0  0
  2  7  1  0
  4  8  1  0
  8  9  2  0
  8 10  2  0
  8 11  1  0
  1  2  2  0
  2  5  1  0
  5  6  2  0
  6  4  1  0
  4  3  2  0
  3  1  1  0
M  END

$$$$
