No_308-gen_results/8p0m/2024-11-27-11-27-31/
     RDKit          3D

 17 17  0  0  0  0  0  0  0  0999 V2000
  -28.0162   -0.8135   28.8779 C   0  0  0  0  0  0  0  0  0  0  0  0
  -27.0636   -0.1190   28.6079 C   0  0  0  0  0  0  0  0  0  0  0  0
  -26.9716    0.7139   27.5060 C   0  0  0  0  0  0  0  0  0  0  0  0
  -25.8205    1.4909   27.1160 C   0  0  0  0  0  0  0  0  0  0  0  0
  -24.6562    1.4242   27.9180 C   0  0  0  0  0  0  0  0  0  0  0  0
  -24.6847    0.5901   29.0659 C   0  0  0  0  0  0  0  0  0  0  0  0
  -25.8099   -0.1266   29.3338 C   0  0  0  0  0  0  0  0  0  0  0  0
  -28.7093   -0.4588   30.1754 C   0  0  0  0  0  0  0  0  0  0  0  0
  -28.5882    0.4074   30.7539 F   0  0  0  0  0  0  0  0  0  0  0  0
  -28.4718   -1.5891   31.0329 F   0  0  0  0  0  0  0  0  0  0  0  0
  -30.0929   -0.6183   29.8422 F   0  0  0  0  0  0  0  0  0  0  0  0
  -23.4858    2.2396   27.6096 C   0  0  0  0  0  0  0  0  0  0  0  0
  -22.3189    1.8806   28.1978 N   0  0  0  0  0  0  0  0  0  0  0  0
  -23.4942    3.1543   26.7908 O   0  0  0  0  0  0  0  0  0  0  0  0
  -28.1399    0.8263   26.6253 C   0  0  0  0  0  0  0  0  0  0  0  0
  -28.1741    0.6270   25.4889 O   0  0  0  0  0  0  0  0  0  0  0  0
  -29.2669    1.3408   27.2261 O   0  0  0  0  0  0  0  0  0  0  0  0
  1  2  2  3
  2  3  1  0
  3  4  1  0
  4  5  1  0
  5  6  1  0
  2  7  1  0
  6  7  1  0
  1  8  1  0
  8  9  1  0
  8 10  1  0
  8 11  1  0
  5 12  1  0
 12 13  1  0
 12 14  2  0
  3 15  1  0
 15 16  2  0
 15 17  1  0
M  END

$$$$
