No_3478-gen_results/8p0m/2024-11-27-11-27-31/
     RDKit          3D

 10 10  0  0  0  0  0  0  0  0999 V2000
  -28.1146   -0.6256   29.0813 Br  0  0  0  0  0  0  0  0  0  0  0  0
  -26.9268    0.4545   28.6846 C   0  0  0  0  0  0  0  0  0  0  0  0
  -25.8457    0.7043   29.3312 C   0  0  0  0  0  0  0  0  0  0  0  0
  -25.6532    0.3574   30.5121 C   0  0  0  0  0  0  0  0  0  0  0  0
  -24.4676    0.7780   31.2460 C   0  0  0  0  0  0  0  0  0  0  0  0
  -23.4749    1.4217   30.5580 C   0  0  0  0  0  0  0  0  0  0  0  0
  -23.5853    1.7502   29.2564 C   0  0  0  0  0  0  0  0  0  0  0  0
  -24.7668    1.3750   28.6418 C   0  0  0  0  0  0  0  0  0  0  0  0
  -27.1583    1.0532   27.2892 C   0  0  0  0  0  0  0  0  0  0  0  0
  -27.9882    1.7682   27.0289 C   0  0  0  0  0  0  0  0  0  0  0  0
  1  2  1  0
  2  3  1  0
  2  9  1  0
  9 10  1  0
  3  4  2  0
  4  5  1  0
  5  6  2  0
  6  7  1  0
  7  8  2  0
  8  3  1  0
M  END

$$$$
