No_3626-gen_results/8p0m/2024-11-27-11-27-31/
     RDKit          3D

 31 34  0  0  0  0  0  0  0  0999 V2000
  -28.1493   -0.8198   28.9079 Cl  0  0  0  0  0  0  0  0  0  0  0  0
  -26.9116   -0.0797   28.9452 C   0  0  0  0  0  0  0  0  0  0  0  0
  -26.7384    1.0439   29.2535 C   0  0  0  0  0  0  0  0  0  0  0  0
  -25.4392    1.7115   29.2755 C   0  0  0  0  0  0  0  0  0  0  0  0
  -24.2812    0.9888   28.8542 C   0  0  0  0  0  0  0  0  0  0  0  0
  -24.4869   -0.3041   28.4957 C   0  0  0  0  0  0  0  0  0  0  0  0
  -25.7046   -0.8667   28.5244 C   0  0  0  0  0  0  0  0  0  0  0  0
  -22.9617    1.6322   28.7948 C   0  0  0  0  0  0  0  0  0  0  0  0
  -22.7241    2.6146   28.3154 N   0  0  0  0  0  0  0  0  0  0  0  0
  -21.9241    0.9170   29.3866 N   0  0  0  0  0  0  0  0  0  0  0  0
  -22.0454   -0.4248   29.7542 C   0  0  0  0  0  0  0  0  0  0  0  0
  -23.1832   -1.1232   29.2619 C   0  0  0  0  0  0  0  0  0  0  0  0
  -27.8847    2.0328   29.4569 C   0  0  0  0  0  0  0  0  0  0  0  0
  -27.7124    3.1959   29.6522 N   0  0  0  0  0  0  0  0  0  0  0  0
  -27.7831    4.0633   28.7271 C   0  0  0  0  0  0  0  0  0  0  0  0
  -27.3716    5.4767   28.9737 C   0  0  0  0  0  0  0  0  0  0  0  0
  -28.0629    3.7680   27.3740 C   0  0  0  0  0  0  0  0  0  0  0  0
  -27.3916    6.4481   27.9566 C   0  0  0  0  0  0  0  0  0  0  0  0
  -28.0925    4.7522   26.3647 C   0  0  0  0  0  0  0  0  0  0  0  0
  -27.7581    6.0780   26.6667 C   0  0  0  0  0  0  0  0  0  0  0  0
  -27.5629    3.6592   31.0809 C   0  0  0  0  0  0  0  0  0  0  0  0
  -28.2659    4.0215   31.9497 C   0  0  0  0  0  0  0  0  0  0  0  0
  -26.0666    3.8120   31.4819 C   0  0  0  0  0  0  0  0  0  0  0  0
  -25.6998    4.1506   32.7433 C   0  0  0  0  0  0  0  0  0  0  0  0
  -28.0135    4.3993   33.2532 C   0  0  0  0  0  0  0  0  0  0  0  0
  -26.6462    4.4834   33.6780 C   0  0  0  0  0  0  0  0  0  0  0  0
  -28.9480    1.4928   29.9336 O   0  0  0  0  0  0  0  0  0  0  0  0
  -29.8345    4.0199   31.8031 C   0  0  0  0  0  0  0  0  0  0  0  0
  -30.5925    3.6490   32.4941 N   0  0  0  0  0  0  0  0  0  0  0  0
  -31.9607    3.6239   32.2716 C   0  0  0  0  0  0  0  0  0  0  0  0
  -30.1638    4.5191   30.6326 O   0  0  0  0  0  0  0  0  0  0  0  0
  1  2  1  0
  5  8  1  0
  8  9  2  0
  8 10  1  0
 10 11  1  0
  6 12  1  0
 11 12  1  0
  3 13  1  0
 13 14  1  0
 14 15  1  0
 14 21  1  0
 13 27  2  0
 22 28  1  0
 28 29  1  0
 29 30  1  0
 28 31  2  0
  2  3  2  0
  3  4  1  0
  4  5  2  0
  5  6  1  0
  6  7  2  0
  7  2  1  0
 15 16  2  0
 16 18  1  0
 18 20  2  0
 20 19  1  0
 19 17  2  0
 17 15  1  0
 21 22  2  0
 22 25  1  0
 25 26  2  0
 26 24  1  0
 24 23  2  0
 23 21  1  0
M  END

$$$$
