No_3179-gen_results/8p0m/2024-11-27-11-27-31/
     RDKit          3D

 22 24  0  0  0  0  0  0  0  0999 V2000
  -28.0162   -0.8135   28.8779 C   0  0  0  0  0  0  0  0  0  0  0  0
  -28.4690   -0.7850   29.8287 C   0  0  0  0  0  0  0  0  0  0  0  0
  -26.5455   -0.8762   28.8500 C   0  0  0  0  0  0  0  0  0  0  0  0
  -25.6825   -0.7773   27.6829 C   0  0  0  0  0  0  0  0  0  0  0  0
  -27.9181   -1.0034   31.1877 C   0  0  0  0  0  0  0  0  0  0  0  0
  -26.5308   -1.0794   31.2463 C   0  0  0  0  0  0  0  0  0  0  0  0
  -25.7798   -1.0462   30.0905 C   0  0  0  0  0  0  0  0  0  0  0  0
  -25.2322    0.5793   27.3292 C   0  0  0  0  0  0  0  0  0  0  0  0
  -25.5211    1.0301   26.0784 C   0  0  0  0  0  0  0  0  0  0  0  0
  -24.5100    1.3968   28.1842 C   0  0  0  0  0  0  0  0  0  0  0  0
  -24.0294    2.6238   27.7425 C   0  0  0  0  0  0  0  0  0  0  0  0
  -25.0706    2.2731   25.6079 C   0  0  0  0  0  0  0  0  0  0  0  0
  -24.2985    3.0662   26.4557 C   0  0  0  0  0  0  0  0  0  0  0  0
  -26.2676    0.2420   25.1298 C   0  0  0  0  0  0  0  0  0  0  0  0
  -27.4226    0.7895   24.5748 C   0  0  0  0  0  0  0  0  0  0  0  0
  -27.8339    1.9960   25.1150 C   0  0  0  0  0  0  0  0  0  0  0  0
  -29.0747    2.2523   25.2326 C   0  0  0  0  0  0  0  0  0  0  0  0
  -29.6093    3.4668   25.8792 C   0  0  0  0  0  0  0  0  0  0  0  0
  -28.7230    4.4569   26.2544 C   0  0  0  0  0  0  0  0  0  0  0  0
  -27.3635    4.1767   26.2025 C   0  0  0  0  0  0  0  0  0  0  0  0
  -26.9290    2.9421   25.6321 C   0  0  0  0  0  0  0  0  0  0  0  0
  -26.6525    3.7263   25.0411 O   0  0  0  0  0  0  0  0  0  0  0  0
  3  4  1  0
  4  8  1  0
  9 14  1  0
 14 15  1  0
 21 22  1  0
 15 16  1  0
  8  9  2  0
  9 12  1  0
 12 13  2  0
 13 11  1  0
 11 10  2  0
 10  8  1  0
  1  2  2  0
  2  5  1  0
  5  6  2  0
  6  7  1  0
  7  3  2  0
  3  1  1  0
 16 17  2  0
 17 18  1  0
 18 19  2  0
 19 20  1  0
 20 21  2  0
 21 16  1  0
M  END

$$$$
