No_3015-gen_results/8p0m/2024-11-27-11-27-31/
     RDKit          3D

 22 24  0  0  0  0  0  0  0  0999 V2000
  -28.0162   -0.8135   28.8779 C   0  0  0  0  0  0  0  0  0  0  0  0
  -27.0636   -0.1190   28.6079 C   0  0  0  0  0  0  0  0  0  0  0  0
  -25.7923   -0.4302   29.0761 C   0  0  0  0  0  0  0  0  0  0  0  0
  -24.5456    0.3494   28.8225 C   0  0  0  0  0  0  0  0  0  0  0  0
  -23.2409    0.0217   29.3323 C   0  0  0  0  0  0  0  0  0  0  0  0
  -27.8820   -1.8995   29.8633 C   0  0  0  0  0  0  0  0  0  0  0  0
  -26.6526   -2.3142   30.3138 C   0  0  0  0  0  0  0  0  0  0  0  0
  -25.5153   -1.5607   29.9787 C   0  0  0  0  0  0  0  0  0  0  0  0
  -22.1588    0.7866   28.9507 C   0  0  0  0  0  0  0  0  0  0  0  0
  -22.1309    1.7439   27.9818 C   0  0  0  0  0  0  0  0  0  0  0  0
  -24.5164    1.3706   27.7930 C   0  0  0  0  0  0  0  0  0  0  0  0
  -23.3378    2.0353   27.4273 C   0  0  0  0  0  0  0  0  0  0  0  0
  -29.0463   -2.7292   30.2922 C   0  0  0  0  0  0  0  0  0  0  0  0
  -28.9441   -4.0228   30.3999 N   0  0  0  0  0  0  0  0  0  0  0  0
  -29.7459   -4.7499   31.1352 C   0  0  0  0  0  0  0  0  0  0  0  0
  -29.8256   -4.6965   32.1965 C   0  0  0  0  0  0  0  0  0  0  0  0
  -30.7473   -5.4660   33.0180 C   0  0  0  0  0  0  0  0  0  0  0  0
  -31.4476   -6.5093   32.3766 C   0  0  0  0  0  0  0  0  0  0  0  0
  -30.4546   -5.8580   30.3985 C   0  0  0  0  0  0  0  0  0  0  0  0
  -31.2758   -6.6553   31.0146 C   0  0  0  0  0  0  0  0  0  0  0  0
  -30.1279   -2.1444   30.4788 O   0  0  0  0  0  0  0  0  0  0  0  0
  -23.4665    2.9802   26.4674 O   0  0  0  0  0  0  0  0  0  0  0  0
  3  4  1  0
  6 13  1  0
 13 14  1  0
 14 15  1  0
 13 21  2  0
 12 22  1  0
 15 16  2  0
 16 17  1  0
 17 18  2  0
 18 20  1  0
 20 19  2  0
 19 15  1  0
  1  2  2  0
  2  3  1  0
  3  8  2  0
  8  7  1  0
  7  6  2  0
  6  1  1  0
  4  5  2  0
  5  9  1  0
  9 10  2  0
 10 12  1  0
 12 11  2  0
 11  4  1  0
M  END

$$$$
