No_378-gen_results/8p0m/2024-11-27-11-27-31/
     RDKit          3D

 20 21  0  0  0  0  0  0  0  0999 V2000
  -28.0162   -0.8135   28.8779 C   0  0  0  0  0  0  0  0  0  0  0  0
  -27.0636   -0.1189   28.6079 C   0  0  0  0  0  0  0  0  0  0  0  0
  -25.7923   -0.4302   29.0761 C   0  0  0  0  0  0  0  0  0  0  0  0
  -25.5756   -1.5654   29.9363 C   0  0  0  0  0  0  0  0  0  0  0  0
  -26.7354   -2.3004   30.2173 C   0  0  0  0  0  0  0  0  0  0  0  0
  -27.9184   -1.9537   29.7629 C   0  0  0  0  0  0  0  0  0  0  0  0
  -29.0001   -2.7012   30.1151 O   0  0  0  0  0  0  0  0  0  0  0  0
  -24.5290    0.3490   28.7998 C   0  0  0  0  0  0  0  0  0  0  0  0
  -24.1172    1.3368   29.6649 C   0  0  0  0  0  0  0  0  0  0  0  0
  -22.9663    2.0989   29.3660 C   0  0  0  0  0  0  0  0  0  0  0  0
  -22.1989    1.8191   28.1888 C   0  0  0  0  0  0  0  0  0  0  0  0
  -22.7015    0.9234   27.2907 C   0  0  0  0  0  0  0  0  0  0  0  0
  -23.8121    0.2119   27.5786 C   0  0  0  0  0  0  0  0  0  0  0  0
  -29.3549   -2.8460   31.4323 C   0  0  0  0  0  0  0  0  0  0  0  0
  -29.9153   -1.8393   32.0146 C   0  0  0  0  0  0  0  0  0  0  0  0
  -30.3358   -0.8335   31.3525 C   0  0  0  0  0  0  0  0  0  0  0  0
  -30.7388    0.1722   31.7453 C   0  0  0  0  0  0  0  0  0  0  0  0
  -31.1333    1.4016   30.9991 C   0  0  0  0  0  0  0  0  0  0  0  0
  -31.1915    1.2084   29.6152 C   0  0  0  0  0  0  0  0  0  0  0  0
  -30.9497   -0.0058   29.0898 C   0  0  0  0  0  0  0  0  0  0  0  0
  6  7  1  0
  3  8  1  0
  7 14  1  0
 14 15  1  0
 15 16  2  3
 16 17  1  0
 17 18  2  3
 18 19  1  0
 19 20  2  0
  1  2  2  0
  2  3  1  0
  3  4  2  0
  4  5  1  0
  5  6  2  0
  6  1  1  0
  8  9  2  0
  9 10  1  0
 10 11  2  0
 11 12  1  0
 12 13  2  0
 13  8  1  0
M  END

$$$$
