No_3336-gen_results/8p0m/2024-11-27-11-27-31/
     RDKit          3D

 29 31  0  0  0  0  0  0  0  0999 V2000
  -28.0162   -0.8135   28.8779 C   0  0  0  0  0  0  0  0  0  0  0  0
  -28.4690   -0.7850   29.8287 C   0  0  0  0  0  0  0  0  0  0  0  0
  -28.1960    0.3478   28.0550 C   0  0  0  0  0  0  0  0  0  0  0  0
  -29.0191    1.3501   28.3782 C   0  0  0  0  0  0  0  0  0  0  0  0
  -29.4107    0.1803   30.3782 C   0  0  0  0  0  0  0  0  0  0  0  0
  -29.2236    2.4924   27.5425 C   0  0  0  0  0  0  0  0  0  0  0  0
  -29.5873    1.2242   29.6185 C   0  0  0  0  0  0  0  0  0  0  0  0
  -29.6857    2.5583   26.5724 C   0  0  0  0  0  0  0  0  0  0  0  0
  -29.8460    3.7992   25.6980 C   0  0  0  0  0  0  0  0  0  0  0  0
  -29.3067    5.0010   26.1982 C   0  0  0  0  0  0  0  0  0  0  0  0
  -28.6312    4.9598   27.3839 C   0  0  0  0  0  0  0  0  0  0  0  0
  -28.5528    3.7698   28.0874 C   0  0  0  0  0  0  0  0  0  0  0  0
  -27.3673    0.3392   26.5282 Cl  0  0  0  0  0  0  0  0  0  0  0  0
  -30.0426    0.0228   31.7648 C   0  0  0  0  0  0  0  0  0  0  0  0
  -30.1886    1.2128   32.7372 Cl  0  0  0  0  0  0  0  0  0  0  0  0
  -29.3922   -0.9520   32.4627 F   0  0  0  0  0  0  0  0  0  0  0  0
  -31.3035   -0.5487   31.4493 F   0  0  0  0  0  0  0  0  0  0  0  0
  -28.1438    6.0434   27.8760 F   0  0  0  0  0  0  0  0  0  0  0  0
  -27.8628    3.8334   29.4655 C   0  0  0  0  0  0  0  0  0  0  0  0
  -26.5298    3.2269   29.5709 C   0  0  0  0  0  0  0  0  0  0  0  0
  -25.5894    3.6307   28.6619 C   0  0  0  0  0  0  0  0  0  0  0  0
  -24.3628    2.8962   28.5872 C   0  0  0  0  0  0  0  0  0  0  0  0
  -23.7927    2.7123   27.2974 C   0  0  0  0  0  0  0  0  0  0  0  0
  -22.7362    1.8146   27.1954 C   0  0  0  0  0  0  0  0  0  0  0  0
  -22.1811    1.1710   28.3382 C   0  0  0  0  0  0  0  0  0  0  0  0
  -22.8388    1.3266   29.5297 C   0  0  0  0  0  0  0  0  0  0  0  0
  -23.8967    2.1585   29.6797 C   0  0  0  0  0  0  0  0  0  0  0  0
  -24.2711    3.3874   26.1654 C   0  0  0  0  0  0  0  0  0  0  0  0
  -25.0944    5.1228   28.8262 C   0  0  0  0  0  0  0  0  0  0  0  0
  4  6  1  0
  3 13  1  0
  5 14  1  0
 14 15  1  0
 14 16  1  0
 14 17  1  0
 11 18  1  0
 12 19  1  0
 19 20  1  0
 20 21  2  3
 21 22  1  0
 23 28  1  0
 21 29  1  0
 22 23  2  0
 23 24  1  0
 24 25  2  0
 25 26  1  0
 26 27  2  0
 27 22  1  0
  6  8  2  0
  8  9  1  0
  9 10  2  0
 10 11  1  0
 11 12  2  0
 12  6  1  0
  1  2  2  0
  2  5  1  0
  5  7  2  0
  7  4  1  0
  4  3  2  0
  3  1  1  0
M  END

$$$$
