No_3907-gen_results/8p0m/2024-11-27-11-27-31/
     RDKit          3D

 22 23  0  0  0  0  0  0  0  0999 V2000
  -28.0162   -0.8135   28.8779 C   0  0  0  0  0  0  0  0  0  0  0  0
  -27.0636   -0.1189   28.6079 C   0  0  0  0  0  0  0  0  0  0  0  0
  -27.0010    0.6913   27.4910 C   0  0  0  0  0  0  0  0  0  0  0  0
  -27.1778    1.9037   27.5632 C   0  0  0  0  0  0  0  0  0  0  0  0
  -28.0594   -1.3960   30.2136 C   0  0  0  0  0  0  0  0  0  0  0  0
  -26.8947   -1.6080   30.9179 C   0  0  0  0  0  0  0  0  0  0  0  0
  -25.7839   -0.2253   29.3757 C   0  0  0  0  0  0  0  0  0  0  0  0
  -25.7520   -0.9581   30.5316 C   0  0  0  0  0  0  0  0  0  0  0  0
  -27.1170    2.7946   26.3619 C   0  0  0  0  0  0  0  0  0  0  0  0
  -26.8513    2.2095   25.1238 C   0  0  0  0  0  0  0  0  0  0  0  0
  -26.6683    0.1690   26.1643 C   0  0  0  0  0  0  0  0  0  0  0  0
  -26.6112    0.9191   25.0364 C   0  0  0  0  0  0  0  0  0  0  0  0
  -29.2899   -2.1784   30.6429 C   0  0  0  0  0  0  0  0  0  0  0  0
  -30.2495   -1.7246   30.8106 O   0  0  0  0  0  0  0  0  0  0  0  0
  -29.0958   -3.5611   30.7897 N   0  0  0  0  0  0  0  0  0  0  0  0
  -30.2078   -4.4378   31.0741 C   0  0  0  0  0  0  0  0  0  0  0  0
  -27.8536   -4.2986   30.5195 C   0  0  0  0  0  0  0  0  0  0  0  0
  -30.6753   -5.3329   31.2800 C   0  0  0  0  0  0  0  0  0  0  0  0
  -29.9321   -6.3903   31.9724 C   0  0  0  0  0  0  0  0  0  0  0  0
  -30.4748   -7.7975   32.0568 C   0  0  0  0  0  0  0  0  0  0  0  0
  -31.6163   -8.0239   31.3424 C   0  0  0  0  0  0  0  0  0  0  0  0
  -32.2928   -7.0497   30.6234 C   0  0  0  0  0  0  0  0  0  0  0  0
  2  3  1  0
  5 13  1  0
 13 14  2  0
 13 15  1  0
 15 16  1  0
 15 17  1  0
 16 18  3  0
 18 19  1  0
 19 20  2  3
 20 21  1  0
 21 22  2  0
  1  2  2  0
  2  7  1  0
  7  8  2  0
  8  6  1  0
  6  5  2  0
  5  1  1  0
  3  4  2  0
  4  9  1  0
  9 10  2  0
 10 12  1  0
 12 11  2  0
 11  3  1  0
M  END

$$$$
