No_3941-gen_results/8p0m/2024-11-27-11-27-31/
     RDKit          3D

 15 16  0  0  0  0  0  0  0  0999 V2000
  -28.0162   -0.8135   28.8779 C   0  0  0  0  0  0  0  0  0  0  0  0
  -27.0636   -0.1190   28.6079 C   0  0  0  0  0  0  0  0  0  0  0  0
  -26.8756    1.1325   28.9134 C   0  0  0  0  0  0  0  0  0  0  0  0
  -25.6883    1.9515   28.5672 C   0  0  0  0  0  0  0  0  0  0  0  0
  -24.6394    1.2834   27.8753 C   0  0  0  0  0  0  0  0  0  0  0  0
  -24.8068   -0.0513   27.6040 C   0  0  0  0  0  0  0  0  0  0  0  0
  -25.9019   -0.7670   27.9511 C   0  0  0  0  0  0  0  0  0  0  0  0
  -27.9985   -1.5833   30.1015 N   0  0  0  0  0  0  0  0  0  0  0  0
  -23.3588    1.7810   27.5152 C   0  0  0  0  0  0  0  0  0  0  0  0
  -22.1939    1.5665   28.1158 N   0  0  0  0  0  0  0  0  0  0  0  0
  -23.3431    2.6347   26.3956 N   0  0  0  0  0  0  0  0  0  0  0  0
  -29.0398   -2.3665   30.5752 C   0  0  0  0  0  0  0  0  0  0  0  0
  -30.1867   -2.0370   30.3160 C   0  0  0  0  0  0  0  0  0  0  0  0
  -30.4078   -1.0136   29.3130 C   0  0  0  0  0  0  0  0  0  0  0  0
  -29.3435   -0.3688   28.7030 C   0  0  0  0  0  0  0  0  0  0  0  0
  5  9  1  0
  9 10  2  0
  9 11  1  0
  1  2  1  0
  1  8  2  0
  8 12  1  0
 12 13  2  0
 13 14  1  0
 14 15  2  0
 15  1  1  0
  2  3  2  0
  3  4  1  0
  4  5  2  0
  5  6  1  0
  6  7  2  0
  7  2  1  0
M  END

$$$$
