No_3382-gen_results/8p0m/2024-11-27-11-27-31/
     RDKit          3D

 33 34  0  0  0  0  0  0  0  0999 V2000
  -28.0162   -0.8135   28.8779 C   0  0  0  0  0  0  0  0  0  0  0  0
  -27.0636   -0.1190   28.6079 C   0  0  0  0  0  0  0  0  0  0  0  0
  -25.7923   -0.4302   29.0761 C   0  0  0  0  0  0  0  0  0  0  0  0
  -24.6321    0.3096   28.7290 C   0  0  0  0  0  0  0  0  0  0  0  0
  -27.8949   -1.8615   29.8946 C   0  0  0  0  0  0  0  0  0  0  0  0
  -26.6706   -2.2977   30.3374 C   0  0  0  0  0  0  0  0  0  0  0  0
  -25.5508   -1.5631   29.9406 C   0  0  0  0  0  0  0  0  0  0  0  0
  -24.0938    1.3273   29.4017 C   0  0  0  0  0  0  0  0  0  0  0  0
  -24.7078    1.8034   30.5015 N   0  0  0  0  0  0  0  0  0  0  0  0
  -22.8878    1.6583   29.3498 O   0  0  0  0  0  0  0  0  0  0  0  0
  -24.1775    2.8824   31.4251 C   0  0  0  0  0  0  0  0  0  0  0  0
  -29.0866   -2.6931   30.3414 C   0  0  0  0  0  0  0  0  0  0  0  0
  -29.0186   -3.8951   30.3116 O   0  0  0  0  0  0  0  0  0  0  0  0
  -30.1323   -2.1070   30.7463 O   0  0  0  0  0  0  0  0  0  0  0  0
  -25.3307    3.7721   31.9096 C   0  0  0  0  0  0  0  0  0  0  0  0
  -24.9799    4.7312   32.2952 F   0  0  0  0  0  0  0  0  0  0  0  0
  -26.1139    3.9921   30.8154 F   0  0  0  0  0  0  0  0  0  0  0  0
  -26.0255    2.9650   32.8321 F   0  0  0  0  0  0  0  0  0  0  0  0
  -26.9875    0.9964   27.6096 C   0  0  0  0  0  0  0  0  0  0  0  0
  -27.5024    2.2557   28.0103 C   0  0  0  0  0  0  0  0  0  0  0  0
  -27.5016    3.3726   27.2039 C   0  0  0  0  0  0  0  0  0  0  0  0
  -26.9903    3.1788   25.8935 C   0  0  0  0  0  0  0  0  0  0  0  0
  -26.6213    0.8655   26.3167 C   0  0  0  0  0  0  0  0  0  0  0  0
  -26.5770    1.9739   25.4378 C   0  0  0  0  0  0  0  0  0  0  0  0
  -23.9323   -0.0619   27.5034 C   0  0  0  0  0  0  0  0  0  0  0  0
  -24.2122   -1.9391   30.4231 C   0  0  0  0  0  0  0  0  0  0  0  0
  -31.2973   -2.7628   30.9933 C   0  0  0  0  0  0  0  0  0  0  0  0
  -32.5342   -2.1475   30.7670 C   0  0  0  0  0  0  0  0  0  0  0  0
  -33.5056   -2.6659   30.8381 O   0  0  0  0  0  0  0  0  0  0  0  0
  -32.4823   -0.7856   30.3764 N   0  0  0  0  0  0  0  0  0  0  0  0
  -33.6258   -0.0400   29.9541 C   0  0  0  0  0  0  0  0  0  0  0  0
  -33.3397    0.8878   29.1620 C   0  0  0  0  0  0  0  0  0  0  0  0
  -34.1351    1.7696   28.5860 C   0  0  0  0  0  0  0  0  0  0  0  0
  4  8  1  0
  8  9  1  0
  8 10  2  0
  9 11  1  0
  5 12  1  0
 12 13  2  0
 12 14  1  0
 11 15  1  0
 15 16  1  0
 15 17  1  0
 15 18  1  0
  2 19  1  0
  4 25  1  0
  7 26  1  0
 14 27  1  0
 27 28  1  0
 28 29  2  0
 28 30  1  0
 30 31  1  0
 31 32  2  3
 32 33  1  0
  4  3  1  0
  1  2  2  0
  2  3  1  0
  3  7  2  0
  7  6  1  0
  6  5  2  0
  5  1  1  0
 19 20  2  0
 20 21  1  0
 21 22  2  0
 22 24  1  0
 24 23  2  0
 23 19  1  0
M  END

$$$$
