No_3618-gen_results/8p0m/2024-11-27-11-27-31/
     RDKit          3D

 35 37  0  0  0  0  0  0  0  0999 V2000
  -28.0162   -0.8135   28.8779 C   0  0  0  0  0  0  0  0  0  0  0  0
  -27.0636   -0.1189   28.6079 C   0  0  0  0  0  0  0  0  0  0  0  0
  -27.0010    0.6913   27.4910 C   0  0  0  0  0  0  0  0  0  0  0  0
  -25.8548    1.4825   27.0830 C   0  0  0  0  0  0  0  0  0  0  0  0
  -24.9008    1.3894   27.5922 C   0  0  0  0  0  0  0  0  0  0  0  0
  -24.6783    0.5764   28.8299 C   0  0  0  0  0  0  0  0  0  0  0  0
  -25.7704   -0.2051   29.2800 C   0  0  0  0  0  0  0  0  0  0  0  0
  -27.9472   -1.4840   30.2151 C   0  0  0  0  0  0  0  0  0  0  0  0
  -29.1018   -2.2423   30.6433 C   0  0  0  0  0  0  0  0  0  0  0  0
  -29.8325   -1.7793   31.2541 C   0  0  0  0  0  0  0  0  0  0  0  0
  -29.5036   -0.8691   32.3387 C   0  0  0  0  0  0  0  0  0  0  0  0
  -28.1695   -0.3915   32.2881 C   0  0  0  0  0  0  0  0  0  0  0  0
  -27.3268   -0.8839   31.3194 C   0  0  0  0  0  0  0  0  0  0  0  0
  -23.5671    2.1588   27.2504 C   0  0  0  0  0  0  0  0  0  0  0  0
  -23.2773    2.0171   26.0982 F   0  0  0  0  0  0  0  0  0  0  0  0
  -22.4744    1.7262   27.9658 F   0  0  0  0  0  0  0  0  0  0  0  0
  -23.7819    3.4785   27.4939 F   0  0  0  0  0  0  0  0  0  0  0  0
  -28.2525    0.8555   26.6981 C   0  0  0  0  0  0  0  0  0  0  0  0
  -28.4115    0.4906   25.7560 O   0  0  0  0  0  0  0  0  0  0  0  0
  -29.3880    1.2073   27.5092 N   0  0  0  0  0  0  0  0  0  0  0  0
  -30.6660    1.3096   26.9185 C   0  0  0  0  0  0  0  0  0  0  0  0
  -31.6331    1.3114   27.8755 C   0  0  0  0  0  0  0  0  0  0  0  0
  -32.7438    0.5874   27.7976 C   0  0  0  0  0  0  0  0  0  0  0  0
  -33.5727    0.3356   28.8755 C   0  0  0  0  0  0  0  0  0  0  0  0
  -33.3890    1.0642   30.0926 C   0  0  0  0  0  0  0  0  0  0  0  0
  -32.2864    1.8642   30.2212 C   0  0  0  0  0  0  0  0  0  0  0  0
  -31.3887    1.9047   29.1939 C   0  0  0  0  0  0  0  0  0  0  0  0
  -30.8675    1.3809   25.7911 O   0  0  0  0  0  0  0  0  0  0  0  0
  -32.0125    2.5577   31.4993 C   0  0  0  0  0  0  0  0  0  0  0  0
  -32.0950    3.8324   31.6959 Cl  0  0  0  0  0  0  0  0  0  0  0  0
  -31.5856    1.6568   32.5043 O   0  0  0  0  0  0  0  0  0  0  0  0
  -31.2627   -2.1457   31.5709 C   0  0  0  0  0  0  0  0  0  0  0  0
  -31.8906   -2.0344   30.3739 F   0  0  0  0  0  0  0  0  0  0  0  0
  -31.9079   -1.3801   32.4142 F   0  0  0  0  0  0  0  0  0  0  0  0
  -31.4085   -3.3787   31.9497 F   0  0  0  0  0  0  0  0  0  0  0  0
  1  2  1  0
  1  8  1  0
  5 14  1  0
 14 15  1  0
 14 16  1  0
 14 17  1  0
  3 18  1  0
 18 19  2  0
 18 20  1  0
 20 21  1  0
 21 22  1  0
 21 28  2  0
 26 29  1  0
 29 30  1  0
 29 31  2  0
 10 32  1  0
 32 33  1  0
 32 34  1  0
 32 35  1  0
  2  3  1  0
  3  4  2  0
  4  5  1  0
  5  6  2  0
  6  7  1  0
  7  2  2  0
 22 23  2  0
 23 24  1  0
 24 25  2  0
 25 26  1  0
 26 27  2  0
 27 22  1  0
  8  9  2  0
  9 10  1  0
 10 11  2  0
 11 12  1  0
 12 13  2  0
 13  8  1  0
M  END

$$$$
