No_3586-gen_results/8p0m/2024-11-27-11-27-31/
     RDKit          3D

 35 38  0  0  0  0  0  0  0  0999 V2000
  -28.0162   -0.8135   28.8779 C   0  0  0  0  0  0  0  0  0  0  0  0
  -28.4690   -0.7850   29.8287 C   0  0  0  0  0  0  0  0  0  0  0  0
  -27.1356    0.2359   28.5352 C   0  0  0  0  0  0  0  0  0  0  0  0
  -26.8745    1.2825   29.3982 C   0  0  0  0  0  0  0  0  0  0  0  0
  -27.5070    1.2380   30.6295 C   0  0  0  0  0  0  0  0  0  0  0  0
  -28.3293    0.1745   30.9350 C   0  0  0  0  0  0  0  0  0  0  0  0
  -26.4077    0.3070   27.2259 C   0  0  0  0  0  0  0  0  0  0  0  0
  -25.7128    1.4905   26.9212 C   0  0  0  0  0  0  0  0  0  0  0  0
  -25.4551    2.4911   27.8860 C   0  0  0  0  0  0  0  0  0  0  0  0
  -26.0927    2.4424   29.1084 C   0  0  0  0  0  0  0  0  0  0  0  0
  -24.7611    3.9729   27.3863 Cl  0  0  0  0  0  0  0  0  0  0  0  0
  -29.5700   -2.1300   30.5044 Cl  0  0  0  0  0  0  0  0  0  0  0  0
  -25.8938    3.5909   30.0610 C   0  0  0  0  0  0  0  0  0  0  0  0
  -26.1270    4.6945   29.8378 O   0  0  0  0  0  0  0  0  0  0  0  0
  -25.2030    3.1986   31.2543 N   0  0  0  0  0  0  0  0  0  0  0  0
  -24.6932    1.9868   31.6914 C   0  0  0  0  0  0  0  0  0  0  0  0
  -25.1021    4.3563   32.2400 C   0  0  0  0  0  0  0  0  0  0  0  0
  -24.3137    5.2996   32.0522 C   0  0  0  0  0  0  0  0  0  0  0  0
  -24.4311    6.5220   32.6201 C   0  0  0  0  0  0  0  0  0  0  0  0
  -25.3145    6.6931   33.7500 C   0  0  0  0  0  0  0  0  0  0  0  0
  -26.0795    4.3171   33.3176 C   0  0  0  0  0  0  0  0  0  0  0  0
  -26.1760    5.5448   34.0583 C   0  0  0  0  0  0  0  0  0  0  0  0
  -23.6328    1.5982   31.1373 O   0  0  0  0  0  0  0  0  0  0  0  0
  -25.2447    1.3796   32.6224 O   0  0  0  0  0  0  0  0  0  0  0  0
  -26.9052    5.5203   35.3084 C   0  0  0  0  0  0  0  0  0  0  0  0
  -27.7411    4.8566   35.5485 O   0  0  0  0  0  0  0  0  0  0  0  0
  -26.3161    6.2525   36.3081 O   0  0  0  0  0  0  0  0  0  0  0  0
  -23.5486    7.6874   32.3771 C   0  0  0  0  0  0  0  0  0  0  0  0
  -23.8832    8.5438   31.2847 C   0  0  0  0  0  0  0  0  0  0  0  0
  -22.9219    9.4769   30.8599 C   0  0  0  0  0  0  0  0  0  0  0  0
  -22.3935    7.9548   33.1089 C   0  0  0  0  0  0  0  0  0  0  0  0
  -21.4754    8.9496   32.7926 C   0  0  0  0  0  0  0  0  0  0  0  0
  -20.2812    9.2019   33.5281 C   0  0  0  0  0  0  0  0  0  0  0  0
  -21.7686    9.7388   31.6431 C   0  0  0  0  0  0  0  0  0  0  0  0
  -19.2282    9.3639   32.9393 O   0  0  0  0  0  0  0  0  0  0  0  0
  9 11  1  0
  2 12  1  0
 10 13  1  0
 13 14  2  0
 13 15  1  0
 15 16  1  0
 15 17  1  0
 16 23  1  0
 16 24  2  0
 22 25  1  0
 25 26  2  0
 25 27  1  0
 19 28  1  0
 32 33  1  0
 33 35  2  0
  4 10  2  0
 10  9  1  0
  9  8  2  0
  8  7  1  0
  7  3  2  0
  1  2  2  0
  2  6  1  0
  6  5  2  0
  5  4  1  0
  4  3  1  0
  3  1  1  0
 28 29  2  0
 29 30  1  0
 30 34  2  0
 34 32  1  0
 32 31  2  0
 31 28  1  0
 17 18  2  0
 18 19  1  0
 19 20  2  0
 20 22  1  0
 22 21  2  0
 21 17  1  0
M  END

$$$$
