No_3629-gen_results/8p0m/2024-11-27-11-27-31/
     RDKit          3D

 21 23  0  0  0  0  0  0  0  0999 V2000
  -28.0162   -0.8135   28.8779 C   0  0  0  0  0  0  0  0  0  0  0  0
  -27.0636   -0.1189   28.6079 C   0  0  0  0  0  0  0  0  0  0  0  0
  -27.0010    0.6913   27.4910 C   0  0  0  0  0  0  0  0  0  0  0  0
  -25.8548    1.4825   27.0830 C   0  0  0  0  0  0  0  0  0  0  0  0
  -24.6901    1.4526   27.8807 C   0  0  0  0  0  0  0  0  0  0  0  0
  -24.7379    0.6010   29.0416 C   0  0  0  0  0  0  0  0  0  0  0  0
  -25.8234   -0.1688   29.3887 C   0  0  0  0  0  0  0  0  0  0  0  0
  -29.2455   -0.0678   29.1937 C   0  0  0  0  0  0  0  0  0  0  0  0
  -30.3313   -0.8312   29.6878 C   0  0  0  0  0  0  0  0  0  0  0  0
  -30.1233   -2.1444   30.1042 C   0  0  0  0  0  0  0  0  0  0  0  0
  -28.8969   -2.7444   30.1226 C   0  0  0  0  0  0  0  0  0  0  0  0
  -27.8154   -2.0612   29.6136 C   0  0  0  0  0  0  0  0  0  0  0  0
  -26.6313   -2.5695   29.7055 F   0  0  0  0  0  0  0  0  0  0  0  0
  -23.5023    2.2145   27.5741 C   0  0  0  0  0  0  0  0  0  0  0  0
  -22.3275    1.8621   28.1558 N   0  0  0  0  0  0  0  0  0  0  0  0
  -23.5775    3.2575   26.9014 O   0  0  0  0  0  0  0  0  0  0  0  0
  -31.6869   -0.2524   29.6760 C   0  0  0  0  0  0  0  0  0  0  0  0
  -31.9355    0.7529   30.1346 O   0  0  0  0  0  0  0  0  0  0  0  0
  -32.4898   -0.8392   28.7342 O   0  0  0  0  0  0  0  0  0  0  0  0
  -22.0285    0.6873   28.7966 C   0  0  0  0  0  0  0  0  0  0  0  0
  -23.2033    0.0170   29.3794 C   0  0  0  0  0  0  0  0  0  0  0  0
  1  2  1  0
 12 13  1  0
  5 14  1  0
 14 15  1  0
 14 16  2  0
  9 17  1  0
 17 18  1  0
 17 19  2  0
 15 20  1  0
  6 21  1  0
 21 20  1  0
  2  3  2  0
  3  4  1  0
  4  5  2  0
  5  6  1  0
  6  7  2  0
  7  2  1  0
  1  8  2  0
  8  9  1  0
  9 10  2  0
 10 11  1  0
 11 12  2  0
 12  1  1  0
M  END

$$$$
