No_3440-gen_results/8p0m/2024-11-27-11-27-31/
     RDKit          3D

 26 28  0  0  0  0  0  0  0  0999 V2000
  -28.0162   -0.8135   28.8779 C   0  0  0  0  0  0  0  0  0  0  0  0
  -28.4690   -0.7850   29.8287 C   0  0  0  0  0  0  0  0  0  0  0  0
  -28.1960    0.3478   28.0550 C   0  0  0  0  0  0  0  0  0  0  0  0
  -29.0191    1.3501   28.3782 C   0  0  0  0  0  0  0  0  0  0  0  0
  -29.4107    0.1803   30.3782 C   0  0  0  0  0  0  0  0  0  0  0  0
  -29.2236    2.4924   27.5425 C   0  0  0  0  0  0  0  0  0  0  0  0
  -29.5873    1.2242   29.6185 C   0  0  0  0  0  0  0  0  0  0  0  0
  -29.6215    2.7611   26.5109 C   0  0  0  0  0  0  0  0  0  0  0  0
  -29.7046    4.0306   25.7684 C   0  0  0  0  0  0  0  0  0  0  0  0
  -29.1859    5.1635   26.4111 C   0  0  0  0  0  0  0  0  0  0  0  0
  -28.6217    5.0147   27.6302 C   0  0  0  0  0  0  0  0  0  0  0  0
  -28.5664    3.7934   28.2435 C   0  0  0  0  0  0  0  0  0  0  0  0
  -27.3569    0.3686   26.5226 Cl  0  0  0  0  0  0  0  0  0  0  0  0
  -30.0559    0.0025   31.7545 C   0  0  0  0  0  0  0  0  0  0  0  0
  -30.0893    0.9201   32.5426 N   0  0  0  0  0  0  0  0  0  0  0  0
  -30.6880    0.9343   33.6469 C   0  0  0  0  0  0  0  0  0  0  0  0
  -30.6006   -1.0869   31.9414 O   0  0  0  0  0  0  0  0  0  0  0  0
  -30.0197    0.6083   34.7957 C   0  0  0  0  0  0  0  0  0  0  0  0
  -28.6745    0.7947   34.8963 C   0  0  0  0  0  0  0  0  0  0  0  0
  -28.0203    1.6586   34.0329 C   0  0  0  0  0  0  0  0  0  0  0  0
  -26.5247    1.7842   34.2387 C   0  0  0  0  0  0  0  0  0  0  0  0
  -25.8792    2.6335   33.2761 C   0  0  0  0  0  0  0  0  0  0  0  0
  -26.2104    2.8245   32.3343 C   0  0  0  0  0  0  0  0  0  0  0  0
  -27.6678    2.7483   31.9477 C   0  0  0  0  0  0  0  0  0  0  0  0
  -28.4423    2.0859   32.8225 C   0  0  0  0  0  0  0  0  0  0  0  0
  -29.3239    3.2664   33.1684 N   0  0  0  0  0  0  0  0  0  0  0  0
  4  6  1  0
  3 13  1  0
  5 14  1  0
 14 15  1  0
 15 16  1  0
 14 17  2  0
 16 18  2  3
 18 19  1  0
 25 26  1  0
 19 20  1  0
  6  8  2  0
  8  9  1  0
  9 10  2  0
 10 11  1  0
 11 12  2  0
 12  6  1  0
 20 21  2  0
 21 22  1  0
 22 23  2  0
 23 24  1  0
 24 25  2  0
 25 20  1  0
  1  2  2  0
  2  5  1  0
  5  7  2  0
  7  4  1  0
  4  3  2  0
  3  1  1  0
M  END

$$$$
