No_3975-gen_results/8p0m/2024-11-27-11-27-31/
     RDKit          3D

 35 38  0  0  0  0  0  0  0  0999 V2000
  -28.1229   -1.3353   28.4874 O   0  0  0  0  0  0  0  0  0  0  0  0
  -27.0637   -0.8242   28.8687 C   0  0  0  0  0  0  0  0  0  0  0  0
  -26.9592    0.0926   29.7582 C   0  0  0  0  0  0  0  0  0  0  0  0
  -25.8011   -1.3566   28.3971 N   0  0  0  0  0  0  0  0  0  0  0  0
  -25.7368    0.7239   30.2099 C   0  0  0  0  0  0  0  0  0  0  0  0
  -24.5490   -0.8600   28.7870 C   0  0  0  0  0  0  0  0  0  0  0  0
  -24.5149    0.1880   29.6985 C   0  0  0  0  0  0  0  0  0  0  0  0
  -28.1851    0.6999   30.3575 C   0  0  0  0  0  0  0  0  0  0  0  0
  -28.9540    1.5224   29.6533 C   0  0  0  0  0  0  0  0  0  0  0  0
  -30.1668    1.9360   30.1333 C   0  0  0  0  0  0  0  0  0  0  0  0
  -30.5818    1.5087   31.4376 C   0  0  0  0  0  0  0  0  0  0  0  0
  -28.5798    0.1733   31.6674 C   0  0  0  0  0  0  0  0  0  0  0  0
  -29.7741    0.6095   32.1849 C   0  0  0  0  0  0  0  0  0  0  0  0
  -23.1832    0.7030   30.0672 C   0  0  0  0  0  0  0  0  0  0  0  0
  -22.1079    0.1048   29.6785 O   0  0  0  0  0  0  0  0  0  0  0  0
  -21.4855    0.5861   28.5073 C   0  0  0  0  0  0  0  0  0  0  0  0
  -31.8416    2.0083   32.0110 C   0  0  0  0  0  0  0  0  0  0  0  0
  -31.7678    2.4478   33.2194 C   0  0  0  0  0  0  0  0  0  0  0  0
  -30.8909    3.4629   33.5392 C   0  0  0  0  0  0  0  0  0  0  0  0
  -30.7924    3.9799   34.8893 C   0  0  0  0  0  0  0  0  0  0  0  0
  -29.8320    4.9899   35.3000 C   0  0  0  0  0  0  0  0  0  0  0  0
  -28.9280    5.4531   34.2837 C   0  0  0  0  0  0  0  0  0  0  0  0
  -28.9774    4.8987   33.0006 C   0  0  0  0  0  0  0  0  0  0  0  0
  -29.8922    3.9343   32.6725 C   0  0  0  0  0  0  0  0  0  0  0  0
  -32.4941    2.6730   31.2770 F   0  0  0  0  0  0  0  0  0  0  0  0
  -27.9491    5.5416   32.1905 C   0  0  0  0  0  0  0  0  0  0  0  0
  -28.0337    5.3661   30.9912 N   0  0  0  0  0  0  0  0  0  0  0  0
  -27.8175    5.8237   30.1230 C   0  0  0  0  0  0  0  0  0  0  0  0
  -28.2283    5.4722   28.8085 C   0  0  0  0  0  0  0  0  0  0  0  0
  -26.8112    6.9766   30.0852 C   0  0  0  0  0  0  0  0  0  0  0  0
  -26.4008    7.6616   28.9343 C   0  0  0  0  0  0  0  0  0  0  0  0
  -26.9026    7.2117   27.7003 C   0  0  0  0  0  0  0  0  0  0  0  0
  -27.7703    6.1534   27.6511 C   0  0  0  0  0  0  0  0  0  0  0  0
  -27.0465    6.2089   32.7253 O   0  0  0  0  0  0  0  0  0  0  0  0
  -25.3871    8.7110   29.0103 C   0  0  0  0  0  0  0  0  0  0  0  0
  1  2  2  0
  2  3  1  0
  2  4  1  0
  3  5  1  0
  6  7  1  0
  3  8  1  0
  7 14  1  0
 14 15  1  0
 15 16  1  0
 11 17  1  0
 17 18  1  0
 18 19  1  0
 17 25  1  0
 23 26  1  0
 26 27  1  0
 27 28  1  0
 26 34  2  0
 31 35  1  0
  5  7  1  0
  6  4  1  0
 28 29  2  0
 29 33  1  0
 33 32  2  0
 32 31  1  0
 31 30  2  0
 30 28  1  0
 19 20  2  0
 20 21  1  0
 21 22  2  0
 22 23  1  0
 23 24  2  0
 24 19  1  0
  8  9  2  0
  9 10  1  0
 10 11  2  0
 11 13  1  0
 13 12  2  0
 12  8  1  0
M  END

$$$$
