No_3320-gen_results/8p0m/2024-11-27-11-27-31/
     RDKit          3D

 16 17  0  0  0  0  0  0  0  0999 V2000
  -28.0162   -0.8135   28.8779 C   0  0  0  0  0  0  0  0  0  0  0  0
  -28.4690   -0.7850   29.8287 C   0  0  0  0  0  0  0  0  0  0  0  0
  -26.5455   -0.8762   28.8500 C   0  0  0  0  0  0  0  0  0  0  0  0
  -25.6825   -0.7773   27.6829 C   0  0  0  0  0  0  0  0  0  0  0  0
  -29.9909   -0.7300   29.9814 C   0  0  0  0  0  0  0  0  0  0  0  0
  -25.9506    0.1294   26.7193 C   0  0  0  0  0  0  0  0  0  0  0  0
  -27.3251    0.4709   26.5832 C   0  0  0  0  0  0  0  0  0  0  0  0
  -28.1041    0.4546   27.8449 C   0  0  0  0  0  0  0  0  0  0  0  0
  -30.6773   -1.0181   31.1692 C   0  0  0  0  0  0  0  0  0  0  0  0
  -28.2442   -1.9002   30.8524 C   0  0  0  0  0  0  0  0  0  0  0  0
  -28.8430   -2.1099   32.0933 N   0  0  0  0  0  0  0  0  0  0  0  0
  -30.1945   -1.9928   32.0234 C   0  0  0  0  0  0  0  0  0  0  0  0
  -27.7288    1.3043   25.4998 C   0  0  0  0  0  0  0  0  0  0  0  0
  -28.1996    0.6361   24.3539 C   0  0  0  0  0  0  0  0  0  0  0  0
  -28.8186    2.2593   25.9456 C   0  0  0  0  0  0  0  0  0  0  0  0
  -26.4819    2.1877   25.0416 C   0  0  0  0  0  0  0  0  0  0  0  0
  7 13  1  0
 13 14  1  0
 13 15  1  0
 13 16  1  0
  2  1  1  0
  1  3  2  0
  3  4  1  0
  4  6  2  0
  6  7  1  0
  7  8  2  0
  8  1  1  0
  2  5  2  0
  5  9  1  0
  9 12  2  0
 12 11  1  0
 11 10  2  0
 10  2  1  0
M  END

$$$$
