No_3206-gen_results/8p0m/2024-11-27-11-27-31/
     RDKit          3D

 35 38  0  0  0  0  0  0  0  0999 V2000
  -28.0162   -0.8135   28.8779 C   0  0  0  0  0  0  0  0  0  0  0  0
  -28.4690   -0.7850   29.8287 C   0  0  0  0  0  0  0  0  0  0  0  0
  -27.1356    0.2359   28.5352 C   0  0  0  0  0  0  0  0  0  0  0  0
  -26.8745    1.2825   29.3982 C   0  0  0  0  0  0  0  0  0  0  0  0
  -28.3613    0.1987   30.9244 C   0  0  0  0  0  0  0  0  0  0  0  0
  -27.5277    1.2234   30.6356 C   0  0  0  0  0  0  0  0  0  0  0  0
  -26.3987    0.2949   27.2279 C   0  0  0  0  0  0  0  0  0  0  0  0
  -26.9022    0.7280   26.2134 C   0  0  0  0  0  0  0  0  0  0  0  0
  -26.1747    0.6364   24.9259 C   0  0  0  0  0  0  0  0  0  0  0  0
  -25.0769   -0.2068   27.2393 C   0  0  0  0  0  0  0  0  0  0  0  0
  -24.2655   -0.1217   26.1499 C   0  0  0  0  0  0  0  0  0  0  0  0
  -24.8746    0.2819   24.9272 C   0  0  0  0  0  0  0  0  0  0  0  0
  -24.4633   -0.6011   28.3975 O   0  0  0  0  0  0  0  0  0  0  0  0
  -24.6294   -1.8271   28.9421 C   0  0  0  0  0  0  0  0  0  0  0  0
  -28.2234    1.3252   25.8845 C   0  0  0  0  0  0  0  0  0  0  0  0
  -29.2352    1.1338   26.5465 C   0  0  0  0  0  0  0  0  0  0  0  0
  -30.4815    1.7886   26.3869 C   0  0  0  0  0  0  0  0  0  0  0  0
  -30.5396    2.6611   25.3371 C   0  0  0  0  0  0  0  0  0  0  0  0
  -28.4636    2.3617   24.8617 C   0  0  0  0  0  0  0  0  0  0  0  0
  -29.4964    2.9986   24.5936 C   0  0  0  0  0  0  0  0  0  0  0  0
  -31.6997    1.4830   27.2220 C   0  0  0  0  0  0  0  0  0  0  0  0
  -31.9983    1.6710   28.1966 O   0  0  0  0  0  0  0  0  0  0  0  0
  -32.4369    0.4285   26.4978 O   0  0  0  0  0  0  0  0  0  0  0  0
  -29.4868   -1.9166   30.3303 C   0  0  0  0  0  0  0  0  0  0  0  0
  -29.1065   -3.0461   30.5292 N   0  0  0  0  0  0  0  0  0  0  0  0
  -29.7588   -4.2096   30.1924 C   0  0  0  0  0  0  0  0  0  0  0  0
  -30.7361   -1.6945   30.0850 O   0  0  0  0  0  0  0  0  0  0  0  0
  -29.7053   -5.1082   31.3843 C   0  0  0  0  0  0  0  0  0  0  0  0
  -30.0165   -6.2681   31.1114 O   0  0  0  0  0  0  0  0  0  0  0  0
  -30.4174   -7.1243   32.2122 C   0  0  0  0  0  0  0  0  0  0  0  0
  -29.8910   -6.7804   33.3180 C   0  0  0  0  0  0  0  0  0  0  0  0
  -29.5046   -5.4784   33.6607 C   0  0  0  0  0  0  0  0  0  0  0  0
  -29.4163   -4.6031   32.6306 C   0  0  0  0  0  0  0  0  0  0  0  0
  -24.2970   -1.8980   30.3161 C   0  0  0  0  0  0  0  0  0  0  0  0
  -25.0164   -2.9475   28.2280 C   0  0  0  0  0  0  0  0  0  0  0  0
  3  7  1  0
 10 13  1  0
 13 14  1  0
  8 15  1  0
 17 21  1  0
 21 22  2  0
 21 23  1  0
  2 24  1  0
 24 25  1  0
 25 26  1  0
 24 27  2  0
 26 28  1  0
 28 29  1  0
 29 30  1  0
 30 31  2  0
 31 32  1  0
 28 33  1  0
 32 33  2  0
 14 34  1  0
 14 35  1  0
 15 16  2  0
 16 17  1  0
 17 18  2  0
 18 20  1  0
 20 19  2  0
 19 15  1  0
  1  2  2  0
  2  5  1  0
  5  6  2  0
  6  4  1  0
  4  3  2  0
  3  1  1  0
  7  8  1  0
  8  9  2  0
  9 12  1  0
 12 11  2  0
 11 10  1  0
 10  7  2  0
M  END

$$$$
