No_3307-gen_results/8p0m/2024-11-27-11-27-31/
     RDKit          3D

 25 26  0  0  0  0  0  0  0  0999 V2000
  -28.0162   -0.8135   28.8779 C   0  0  0  0  0  0  0  0  0  0  0  0
  -28.4690   -0.7850   29.8287 C   0  0  0  0  0  0  0  0  0  0  0  0
  -27.0871    0.2903   28.6377 C   0  0  0  0  0  0  0  0  0  0  0  0
  -26.2516    0.4114   27.4223 C   0  0  0  0  0  0  0  0  0  0  0  0
  -28.3913    0.1041   30.9805 C   0  0  0  0  0  0  0  0  0  0  0  0
  -27.5332    1.1666   30.7866 C   0  0  0  0  0  0  0  0  0  0  0  0
  -26.8281    1.2557   29.6454 C   0  0  0  0  0  0  0  0  0  0  0  0
  -26.4954   -0.2383   26.5458 F   0  0  0  0  0  0  0  0  0  0  0  0
  -24.9919    0.2881   27.7429 F   0  0  0  0  0  0  0  0  0  0  0  0
  -26.2879    1.7595   26.9324 F   0  0  0  0  0  0  0  0  0  0  0  0
  -29.4618   -2.0263   30.2115 C   0  0  0  0  0  0  0  0  0  0  0  0
  -29.0077   -3.1803   30.3970 O   0  0  0  0  0  0  0  0  0  0  0  0
  -30.6665   -1.8380   30.3555 O   0  0  0  0  0  0  0  0  0  0  0  0
  -27.3151    2.1890   31.8297 C   0  0  0  0  0  0  0  0  0  0  0  0
  -26.5000    3.0273   31.7377 C   0  0  0  0  0  0  0  0  0  0  0  0
  -26.2117    4.1153   32.7517 C   0  0  0  0  0  0  0  0  0  0  0  0
  -26.9098    4.0480   33.9243 C   0  0  0  0  0  0  0  0  0  0  0  0
  -27.8315    3.0220   34.0672 C   0  0  0  0  0  0  0  0  0  0  0  0
  -28.0553    2.0919   33.0774 C   0  0  0  0  0  0  0  0  0  0  0  0
  -25.1553    5.1364   32.4887 C   0  0  0  0  0  0  0  0  0  0  0  0
  -24.0955    4.9636   32.9116 O   0  0  0  0  0  0  0  0  0  0  0  0
  -25.5045    6.1052   31.7894 O   0  0  0  0  0  0  0  0  0  0  0  0
  -28.5676    2.9289   35.3837 C   0  0  0  0  0  0  0  0  0  0  0  0
  -29.1114    2.0892   35.7303 N   0  0  0  0  0  0  0  0  0  0  0  0
  -29.8072    2.0239   36.9383 C   0  0  0  0  0  0  0  0  0  0  0  0
  3  4  1  0
  4  8  1  0
  4  9  1  0
  4 10  1  0
  2 11  1  0
 11 12  2  0
 11 13  1  0
  6 14  1  0
 16 20  1  0
 20 21  1  0
 20 22  2  0
 18 23  1  0
 23 24  2  3
 24 25  1  0
 14 15  2  0
 15 16  1  0
 16 17  2  0
 17 18  1  0
 18 19  2  0
 19 14  1  0
  1  2  2  0
  2  5  1  0
  5  6  2  0
  6  7  1  0
  7  3  2  0
  3  1  1  0
M  END

$$$$
