No_3619-gen_results/8p0m/2024-11-27-11-27-31/
     RDKit          3D

 25 26  0  0  0  0  0  0  0  0999 V2000
  -28.0162   -0.8135   28.8779 C   0  0  0  0  0  0  0  0  0  0  0  0
  -28.4690   -0.7850   29.8287 C   0  0  0  0  0  0  0  0  0  0  0  0
  -27.0871    0.2903   28.6377 C   0  0  0  0  0  0  0  0  0  0  0  0
  -26.2516    0.4114   27.4223 C   0  0  0  0  0  0  0  0  0  0  0  0
  -28.3913    0.1041   30.9805 C   0  0  0  0  0  0  0  0  0  0  0  0
  -27.5332    1.1666   30.7866 C   0  0  0  0  0  0  0  0  0  0  0  0
  -26.8281    1.2557   29.6454 C   0  0  0  0  0  0  0  0  0  0  0  0
  -26.0545    1.5503   27.3138 F   0  0  0  0  0  0  0  0  0  0  0  0
  -25.1471   -0.3298   27.5522 F   0  0  0  0  0  0  0  0  0  0  0  0
  -26.9727   -0.0291   26.3313 F   0  0  0  0  0  0  0  0  0  0  0  0
  -29.4550   -2.0094   30.2241 C   0  0  0  0  0  0  0  0  0  0  0  0
  -30.4880   -1.9688   29.8417 O   0  0  0  0  0  0  0  0  0  0  0  0
  -28.9726   -3.0166   30.9466 O   0  0  0  0  0  0  0  0  0  0  0  0
  -27.3203    2.1795   31.8572 C   0  0  0  0  0  0  0  0  0  0  0  0
  -27.0857    1.9595   32.9399 C   0  0  0  0  0  0  0  0  0  0  0  0
  -26.8379    2.9626   34.0220 C   0  0  0  0  0  0  0  0  0  0  0  0
  -26.7303    4.2920   33.5875 C   0  0  0  0  0  0  0  0  0  0  0  0
  -27.2240    3.5574   31.3510 C   0  0  0  0  0  0  0  0  0  0  0  0
  -26.9069    4.5738   32.2379 C   0  0  0  0  0  0  0  0  0  0  0  0
  -26.7729    5.9963   31.7785 C   0  0  0  0  0  0  0  0  0  0  0  0
  -26.6635    6.2830   30.8157 O   0  0  0  0  0  0  0  0  0  0  0  0
  -26.7296    6.9055   32.8549 O   0  0  0  0  0  0  0  0  0  0  0  0
  -29.3383   -4.3304   30.6258 C   0  0  0  0  0  0  0  0  0  0  0  0
  -29.6377   -4.6513   29.5357 C   0  0  0  0  0  0  0  0  0  0  0  0
  -30.6971   -5.5154   29.5528 O   0  0  0  0  0  0  0  0  0  0  0  0
  3  4  1  0
  4  8  1  0
  4  9  1  0
  4 10  1  0
  2 11  1  0
 11 12  2  0
 11 13  1  0
  6 14  1  0
 19 20  1  0
 20 21  2  0
 20 22  1  0
 13 23  1  0
 23 24  1  0
 24 25  2  0
 14 15  2  0
 15 16  1  0
 16 17  2  0
 17 19  1  0
 19 18  2  0
 18 14  1  0
  1  2  2  0
  2  5  1  0
  5  6  2  0
  6  7  1  0
  7  3  2  0
  3  1  1  0
M  END

$$$$
