No_3679-gen_results/8p0m/2024-11-27-11-27-31/
     RDKit          3D

 18 20  0  0  0  0  0  0  0  0999 V2000
  -28.0162   -0.8135   28.8779 C   0  0  0  0  0  0  0  0  0  0  0  0
  -27.0636   -0.1189   28.6079 C   0  0  0  0  0  0  0  0  0  0  0  0
  -25.8176   -0.3427   29.0487 N   0  0  0  0  0  0  0  0  0  0  0  0
  -24.6506    0.4444   28.7649 C   0  0  0  0  0  0  0  0  0  0  0  0
  -24.7153    1.3122   27.7191 C   0  0  0  0  0  0  0  0  0  0  0  0
  -23.6108    2.0864   27.3769 C   0  0  0  0  0  0  0  0  0  0  0  0
  -22.3585    1.7721   27.9815 C   0  0  0  0  0  0  0  0  0  0  0  0
  -22.2777    0.8396   28.9969 C   0  0  0  0  0  0  0  0  0  0  0  0
  -23.4430    0.0891   29.3720 C   0  0  0  0  0  0  0  0  0  0  0  0
  -29.3323   -0.3029   28.8047 C   0  0  0  0  0  0  0  0  0  0  0  0
  -29.5223    0.8188   27.9837 C   0  0  0  0  0  0  0  0  0  0  0  0
  -28.4517    1.5371   27.5059 C   0  0  0  0  0  0  0  0  0  0  0  0
  -27.1522    1.1755   27.8806 C   0  0  0  0  0  0  0  0  0  0  0  0
  -26.0034    1.8468   27.4239 C   0  0  0  0  0  0  0  0  0  0  0  0
  -26.1346    2.9744   26.5166 C   0  0  0  0  0  0  0  0  0  0  0  0
  -30.9216    1.2566   27.6858 C   0  0  0  0  0  0  0  0  0  0  0  0
  -31.5945    1.7621   28.4679 O   0  0  0  0  0  0  0  0  0  0  0  0
  -31.1096    1.3566   26.3971 O   0  0  0  0  0  0  0  0  0  0  0  0
 14 15  1  0
 11 16  1  0
 16 17  1  0
 16 18  2  0
  2  3  1  0
  3  4  2  0
  5 14  2  0
 14 13  1  0
  4  5  1  0
  5  6  1  0
  6  7  2  0
  7  8  1  0
  8  9  2  0
  9  4  1  0
  1  2  2  0
  2 13  1  0
 13 12  2  0
 12 11  1  0
 11 10  2  0
 10  1  1  0
M  END

$$$$
