No_3078-gen_results/8p0m/2024-11-27-11-27-31/
     RDKit          3D

 18 20  0  0  0  0  0  0  0  0999 V2000
  -28.0162   -0.8135   28.8779 C   0  0  0  0  0  0  0  0  0  0  0  0
  -27.0636   -0.1189   28.6079 C   0  0  0  0  0  0  0  0  0  0  0  0
  -26.8756    1.1325   28.9134 C   0  0  0  0  0  0  0  0  0  0  0  0
  -25.6883    1.9515   28.5672 C   0  0  0  0  0  0  0  0  0  0  0  0
  -24.6394    1.2834   27.8753 C   0  0  0  0  0  0  0  0  0  0  0  0
  -24.8181   -0.0802   27.6166 C   0  0  0  0  0  0  0  0  0  0  0  0
  -25.9311   -0.7717   27.9696 C   0  0  0  0  0  0  0  0  0  0  0  0
  -28.7345   -0.6152   30.0397 N   0  0  0  0  0  0  0  0  0  0  0  0
  -29.8769   -1.3513   30.4487 C   0  0  0  0  0  0  0  0  0  0  0  0
  -23.4482    1.9714   27.4807 C   0  0  0  0  0  0  0  0  0  0  0  0
  -22.4673    1.5023   27.6162 F   0  0  0  0  0  0  0  0  0  0  0  0
  -23.6712    3.0178   26.7511 F   0  0  0  0  0  0  0  0  0  0  0  0
  -30.4407   -1.0739   31.6709 C   0  0  0  0  0  0  0  0  0  0  0  0
  -29.9048   -0.0283   32.4039 C   0  0  0  0  0  0  0  0  0  0  0  0
  -28.7962    0.6747   32.0624 C   0  0  0  0  0  0  0  0  0  0  0  0
  -28.1837    0.3580   30.8686 C   0  0  0  0  0  0  0  0  0  0  0  0
  -27.2313    1.2667   30.3169 C   0  0  0  0  0  0  0  0  0  0  0  0
  -26.9124    2.3445   31.0004 F   0  0  0  0  0  0  0  0  0  0  0  0
  1  8  1  0
  8  9  1  0
  5 10  1  0
 10 11  1  0
 10 12  1  0
 13 14  1  0
  8 16  1  0
 15 16  1  0
  3 17  1  0
 16 17  1  0
 17 18  1  0
  1  2  1  0
  9 13  1  0
 14 15  1  0
  2  3  2  0
  3  4  1  0
  4  5  2  0
  5  6  1  0
  6  7  2  0
  7  2  1  0
M  END

$$$$
