No_3645-gen_results/8p0m/2024-11-27-11-27-31/
     RDKit          3D

 14 14  0  0  0  0  0  0  0  0999 V2000
  -28.0162   -0.8135   28.8779 C   0  0  0  0  0  0  0  0  0  0  0  0
  -27.0636   -0.1190   28.6079 C   0  0  0  0  0  0  0  0  0  0  0  0
  -25.7923   -0.4302   29.0761 C   0  0  0  0  0  0  0  0  0  0  0  0
  -24.5456    0.3494   28.8225 C   0  0  0  0  0  0  0  0  0  0  0  0
  -24.6586    1.4196   27.8878 C   0  0  0  0  0  0  0  0  0  0  0  0
  -25.9471    1.6811   27.3792 C   0  0  0  0  0  0  0  0  0  0  0  0
  -27.0439    0.9739   27.6871 C   0  0  0  0  0  0  0  0  0  0  0  0
  -29.0018   -0.5422   28.2140 F   0  0  0  0  0  0  0  0  0  0  0  0
  -28.3821   -0.6508   30.2566 F   0  0  0  0  0  0  0  0  0  0  0  0
  -23.4458    2.1488   27.6118 C   0  0  0  0  0  0  0  0  0  0  0  0
  -22.3465    1.4897   27.3038 C   0  0  0  0  0  0  0  0  0  0  0  0
  -23.6372    3.4163   27.3108 O   0  0  0  0  0  0  0  0  0  0  0  0
  -21.6640    0.7130   28.3615 C   0  0  0  0  0  0  0  0  0  0  0  0
  -20.4097    0.2908   28.1174 N   0  0  0  0  0  0  0  0  0  0  0  0
  1  2  1  0
  1  8  1  0
  1  9  1  0
  5 10  1  0
 10 11  1  0
 10 12  2  0
 11 13  2  3
 13 14  1  0
  2  3  2  0
  3  4  1  0
  4  5  2  0
  5  6  1  0
  6  7  2  0
  7  2  1  0
M  END

$$$$
