No_3843-gen_results/8p0m/2024-11-27-11-27-31/
     RDKit          3D

 26 27  0  0  0  0  0  0  0  0999 V2000
  -28.0162   -0.8135   28.8779 C   0  0  0  0  0  0  0  0  0  0  0  0
  -27.0636   -0.1190   28.6079 C   0  0  0  0  0  0  0  0  0  0  0  0
  -27.0010    0.6913   27.4910 C   0  0  0  0  0  0  0  0  0  0  0  0
  -28.1373    0.7363   26.6350 C   0  0  0  0  0  0  0  0  0  0  0  0
  -29.2360    0.0765   27.0690 C   0  0  0  0  0  0  0  0  0  0  0  0
  -29.2177   -0.6429   28.1747 C   0  0  0  0  0  0  0  0  0  0  0  0
  -30.5230    0.0808   26.3696 C   0  0  0  0  0  0  0  0  0  0  0  0
  -31.4547   -0.4957   26.7035 O   0  0  0  0  0  0  0  0  0  0  0  0
  -30.6148    1.0337   25.3075 N   0  0  0  0  0  0  0  0  0  0  0  0
  -25.8529   -0.3028   29.5689 C   0  0  0  0  0  0  0  0  0  0  0  0
  -25.4553   -1.2754   30.1214 N   0  0  0  0  0  0  0  0  0  0  0  0
  -24.3312   -1.3696   30.8086 C   0  0  0  0  0  0  0  0  0  0  0  0
  -25.1347    0.8411   29.8062 O   0  0  0  0  0  0  0  0  0  0  0  0
  -23.2321   -1.1954   30.3423 C   0  0  0  0  0  0  0  0  0  0  0  0
  -22.3539   -0.1318   30.7322 N   0  0  0  0  0  0  0  0  0  0  0  0
  -22.8037   -1.6415   29.1616 O   0  0  0  0  0  0  0  0  0  0  0  0
  -31.8398    1.1718   24.4961 C   0  0  0  0  0  0  0  0  0  0  0  0
  -31.8614    2.3060   23.7407 C   0  0  0  0  0  0  0  0  0  0  0  0
  -32.0166    3.3646   24.0500 C   0  0  0  0  0  0  0  0  0  0  0  0
  -32.2692    4.5393   23.1411 C   0  0  0  0  0  0  0  0  0  0  0  0
  -32.7267    4.1171   21.8679 C   0  0  0  0  0  0  0  0  0  0  0  0
  -32.5931    2.7800   21.4154 C   0  0  0  0  0  0  0  0  0  0  0  0
  -32.1849    1.8678   22.2992 C   0  0  0  0  0  0  0  0  0  0  0  0
  -31.6604    3.8887   25.4459 C   0  0  0  0  0  0  0  0  0  0  0  0
  -32.6019    3.6166   26.4729 C   0  0  0  0  0  0  0  0  0  0  0  0
  -32.6513    4.1281   27.3958 C   0  0  0  0  0  0  0  0  0  0  0  0
  5  7  1  0
  7  8  2  0
  7  9  1  0
  2 10  1  0
 10 11  1  0
 11 12  1  0
 10 13  2  0
 12 14  1  0
 14 15  1  0
 14 16  2  0
  9 17  1  0
 17 18  1  0
 19 24  1  0
 24 25  2  3
 25 26  1  0
 18 19  2  0
 19 20  1  0
 20 21  2  0
 21 22  1  0
 22 23  2  0
 23 18  1  0
  1  2  2  0
  2  3  1  0
  3  4  2  0
  4  5  1  0
  5  6  2  0
  6  1  1  0
M  END

$$$$
