No_3603-gen_results/8p0m/2024-11-27-11-27-31/
     RDKit          3D

 26 27  0  0  0  0  0  0  0  0999 V2000
  -28.0162   -0.8135   28.8779 C   0  0  0  0  0  0  0  0  0  0  0  0
  -27.0636   -0.1190   28.6079 C   0  0  0  0  0  0  0  0  0  0  0  0
  -25.7647   -0.3897   29.0360 C   0  0  0  0  0  0  0  0  0  0  0  0
  -24.5516    0.4058   28.7646 C   0  0  0  0  0  0  0  0  0  0  0  0
  -24.6957    1.4480   27.7988 C   0  0  0  0  0  0  0  0  0  0  0  0
  -26.0010    1.6784   27.2965 C   0  0  0  0  0  0  0  0  0  0  0  0
  -27.0736    0.9682   27.6500 C   0  0  0  0  0  0  0  0  0  0  0  0
  -28.6416   -0.4618   30.2155 C   0  0  0  0  0  0  0  0  0  0  0  0
  -29.7677   -1.2518   30.6953 C   0  0  0  0  0  0  0  0  0  0  0  0
  -23.5034    2.1858   27.4595 C   0  0  0  0  0  0  0  0  0  0  0  0
  -23.6097    3.1303   26.5849 N   0  0  0  0  0  0  0  0  0  0  0  0
  -22.3342    1.8820   27.8519 O   0  0  0  0  0  0  0  0  0  0  0  0
  -30.1191   -2.1184   30.0066 C   0  0  0  0  0  0  0  0  0  0  0  0
  -29.7148   -2.7188   28.9765 C   0  0  0  0  0  0  0  0  0  0  0  0
  -28.6023   -1.9529   28.4152 N   0  0  0  0  0  0  0  0  0  0  0  0
  -28.3878    1.2668   27.0549 C   0  0  0  0  0  0  0  0  0  0  0  0
  -28.6266    1.2550   25.9221 O   0  0  0  0  0  0  0  0  0  0  0  0
  -29.4476    1.5499   27.9489 N   0  0  0  0  0  0  0  0  0  0  0  0
  -30.7749    1.8317   27.4710 C   0  0  0  0  0  0  0  0  0  0  0  0
  -31.1985    3.0706   27.7292 C   0  0  0  0  0  0  0  0  0  0  0  0
  -30.7382    3.7962   28.5348 O   0  0  0  0  0  0  0  0  0  0  0  0
  -31.9593    3.6363   26.7144 N   0  0  0  0  0  0  0  0  0  0  0  0
  -31.6950    0.8180   28.3210 C   0  0  0  0  0  0  0  0  0  0  0  0
  -32.3470   -0.1703   27.5494 C   0  0  0  0  0  0  0  0  0  0  0  0
  -33.3021   -0.8986   28.2628 C   0  0  0  0  0  0  0  0  0  0  0  0
  -33.9211   -1.9662   27.5921 C   0  0  0  0  0  0  0  0  0  0  0  0
  5 10  1  0
 10 11  1  0
 10 12  2  0
  7 16  1  0
 16 17  2  0
 16 18  1  0
 18 19  1  0
 19 20  1  0
 20 21  2  0
 20 22  1  0
 19 23  1  0
 23 24  2  3
 24 25  1  0
 25 26  2  0
  1  2  1  0
  1  8  2  0
  8  9  1  0
  9 13  2  0
 13 14  1  0
 14 15  2  0
 15  1  1  0
  2  3  2  0
  3  4  1  0
  4  5  2  0
  5  6  1  0
  6  7  2  0
  7  2  1  0
M  END

$$$$
