No_3436-gen_results/8p0m/2024-11-27-11-27-31/
     RDKit          3D

 35 37  0  0  0  0  0  0  0  0999 V2000
  -28.0162   -0.8135   28.8779 C   0  0  0  0  0  0  0  0  0  0  0  0
  -28.4690   -0.7850   29.8287 C   0  0  0  0  0  0  0  0  0  0  0  0
  -28.1816    0.4277   28.1134 C   0  0  0  0  0  0  0  0  0  0  0  0
  -28.9841    1.4155   28.5154 C   0  0  0  0  0  0  0  0  0  0  0  0
  -29.3802    0.1384   30.4612 C   0  0  0  0  0  0  0  0  0  0  0  0
  -29.5415    1.2736   29.7242 C   0  0  0  0  0  0  0  0  0  0  0  0
  -27.5347    0.4526   26.9017 F   0  0  0  0  0  0  0  0  0  0  0  0
  -29.9753   -0.0857   31.8097 C   0  0  0  0  0  0  0  0  0  0  0  0
  -30.7963   -0.5135   32.2223 C   0  0  0  0  0  0  0  0  0  0  0  0
  -31.2250   -0.6103   33.6507 C   0  0  0  0  0  0  0  0  0  0  0  0
  -28.9578    0.4295   32.8886 C   0  0  0  0  0  0  0  0  0  0  0  0
  -29.2217    0.3925   34.2246 C   0  0  0  0  0  0  0  0  0  0  0  0
  -30.4018   -0.1557   34.6118 C   0  0  0  0  0  0  0  0  0  0  0  0
  -28.2270   -2.3098   30.9068 Cl  0  0  0  0  0  0  0  0  0  0  0  0
  -29.2327    2.8742   27.5072 P   0  0  0  0  0  0  0  0  0  0  0  0
  -29.6567    2.5586   26.3459 O   0  0  0  0  0  0  0  0  0  0  0  0
  -30.1785    3.7220   28.4189 O   0  0  0  0  0  0  0  0  0  0  0  0
  -27.8384    3.5356   27.5788 O   0  0  0  0  0  0  0  0  0  0  0  0
  -26.8692    3.4585   26.6656 C   0  0  0  0  0  0  0  0  0  0  0  0
  -25.5025    3.1670   27.2228 C   0  0  0  0  0  0  0  0  0  0  0  0
  -25.1035    3.6441   28.4075 C   0  0  0  0  0  0  0  0  0  0  0  0
  -26.0048    4.3627   29.2283 C   0  0  0  0  0  0  0  0  0  0  0  0
  -26.2495    4.0971   30.1821 O   0  0  0  0  0  0  0  0  0  0  0  0
  -26.4839    5.4056   28.5698 O   0  0  0  0  0  0  0  0  0  0  0  0
  -26.1589    4.8625   31.3146 C   0  0  0  0  0  0  0  0  0  0  0  0
  -26.2623    4.2795   32.4556 C   0  0  0  0  0  0  0  0  0  0  0  0
  -26.1501    3.0123   32.7146 C   0  0  0  0  0  0  0  0  0  0  0  0
  -25.7570    2.1675   31.6596 C   0  0  0  0  0  0  0  0  0  0  0  0
  -25.3735    0.8741   31.9671 C   0  0  0  0  0  0  0  0  0  0  0  0
  -24.9503   -0.0552   30.9905 C   0  0  0  0  0  0  0  0  0  0  0  0
  -24.6626   -1.3368   31.3272 C   0  0  0  0  0  0  0  0  0  0  0  0
  -24.2832   -2.2029   30.2903 C   0  0  0  0  0  0  0  0  0  0  0  0
  -23.9792   -1.7240   29.0112 C   0  0  0  0  0  0  0  0  0  0  0  0
  -24.2335   -0.3591   28.7077 C   0  0  0  0  0  0  0  0  0  0  0  0
  -24.6811    0.4806   29.7159 C   0  0  0  0  0  0  0  0  0  0  0  0
  3  7  1  0
  5  8  1  0
  2 14  1  0
  4 15  1  0
 15 16  2  0
 15 17  1  0
 15 18  1  0
 18 19  1  0
 19 20  1  0
 20 21  2  3
 21 22  1  0
 22 23  1  0
 22 24  2  0
 23 25  1  0
 25 26  2  3
 26 27  1  0
 27 28  1  0
 28 29  1  0
 29 30  1  0
  8  9  2  0
  9 10  1  0
 10 13  2  0
 13 12  1  0
 12 11  2  0
 11  8  1  0
 30 31  2  0
 31 32  1  0
 32 33  2  0
 33 34  1  0
 34 35  2  0
 35 30  1  0
  1  2  2  0
  2  5  1  0
  5  6  2  0
  6  4  1  0
  4  3  2  0
  3  1  1  0
M  END

$$$$
