No_3717-gen_results/8p0m/2024-11-27-11-27-31/
     RDKit          3D

 14 16  0  0  0  0  0  0  0  0999 V2000
  -28.0162   -0.8135   28.8779 C   0  0  0  0  0  0  0  0  0  0  0  0
  -27.0636   -0.1189   28.6079 C   0  0  0  0  0  0  0  0  0  0  0  0
  -26.9287    1.1713   29.0083 C   0  0  0  0  0  0  0  0  0  0  0  0
  -25.7702    2.0341   28.6884 C   0  0  0  0  0  0  0  0  0  0  0  0
  -25.6189    3.3482   29.0918 C   0  0  0  0  0  0  0  0  0  0  0  0
  -28.7620   -0.4733   29.8847 C   0  0  0  0  0  0  0  0  0  0  0  0
  -28.7741    0.7500   30.4631 C   0  0  0  0  0  0  0  0  0  0  0  0
  -27.7191    1.6583   30.0974 C   0  0  0  0  0  0  0  0  0  0  0  0
  -24.6419    4.1690   28.5458 C   0  0  0  0  0  0  0  0  0  0  0  0
  -23.8920    3.6551   27.4567 C   0  0  0  0  0  0  0  0  0  0  0  0
  -24.9536    1.7116   27.5373 C   0  0  0  0  0  0  0  0  0  0  0  0
  -24.0523    2.4738   26.9614 C   0  0  0  0  0  0  0  0  0  0  0  0
  -26.1758   -0.4915   27.5736 O   0  0  0  0  0  0  0  0  0  0  0  0
  -25.1906    0.3290   26.9942 C   0  0  0  0  0  0  0  0  0  0  0  0
  3  4  1  0
  2 13  1  0
 11 14  1  0
 13 14  1  0
  1  2  2  0
  2  3  1  0
  3  8  2  0
  8  7  1  0
  7  6  2  0
  6  1  1  0
  4  5  2  0
  5  9  1  0
  9 10  2  0
 10 12  1  0
 12 11  2  0
 11  4  1  0
M  END

$$$$
