No_3792-gen_results/8p0m/2024-11-27-11-27-31/
     RDKit          3D

 14 14  0  0  0  0  0  0  0  0999 V2000
  -28.0162   -0.8135   28.8779 C   0  0  0  0  0  0  0  0  0  0  0  0
  -28.4690   -0.7850   29.8287 C   0  0  0  0  0  0  0  0  0  0  0  0
  -26.5042   -0.7777   28.8766 C   0  0  0  0  0  0  0  0  0  0  0  0
  -25.8103   -0.8531   30.1028 C   0  0  0  0  0  0  0  0  0  0  0  0
  -27.9906   -0.8916   31.2257 C   0  0  0  0  0  0  0  0  0  0  0  0
  -26.6042   -0.8676   31.2652 C   0  0  0  0  0  0  0  0  0  0  0  0
  -24.1648   -0.7915   30.1717 Cl  0  0  0  0  0  0  0  0  0  0  0  0
  -30.0988   -0.8363   29.8511 C   0  0  0  0  0  0  0  0  0  0  0  0
  -30.7283   -0.0675   30.6552 O   0  0  0  0  0  0  0  0  0  0  0  0
  -30.6446   -1.5440   29.0251 O   0  0  0  0  0  0  0  0  0  0  0  0
  -25.7999   -0.5919   27.5979 C   0  0  0  0  0  0  0  0  0  0  0  0
  -25.4930    0.7734   27.1946 C   0  0  0  0  0  0  0  0  0  0  0  0
  -24.3950    1.2301   27.5033 C   0  0  0  0  0  0  0  0  0  0  0  0
  -23.9652    2.5633   26.9334 C   0  0  0  0  0  0  0  0  0  0  0  0
  4  7  1  0
  2  8  1  0
  8  9  2  0
  8 10  1  0
  3 11  1  0
 11 12  1  0
 12 13  2  3
 13 14  1  0
  1  2  2  0
  2  5  1  0
  5  6  2  0
  6  4  1  0
  4  3  2  0
  3  1  1  0
M  END

$$$$
