No_3836-gen_results/8p0m/2024-11-27-11-27-31/
     RDKit          3D

 25 28  0  0  0  0  0  0  0  0999 V2000
  -28.1229   -1.3353   28.4874 O   0  0  0  0  0  0  0  0  0  0  0  0
  -27.4806   -0.4044   28.7094 C   0  0  0  0  0  0  0  0  0  0  0  0
  -26.3804   -0.0867   27.9395 C   0  0  0  0  0  0  0  0  0  0  0  0
  -27.6665    0.4468   29.8988 N   0  0  0  0  0  0  0  0  0  0  0  0
  -26.4086    0.8567   26.8802 C   0  0  0  0  0  0  0  0  0  0  0  0
  -25.2466    1.1198   26.1102 C   0  0  0  0  0  0  0  0  0  0  0  0
  -23.9991    0.7500   26.5964 C   0  0  0  0  0  0  0  0  0  0  0  0
  -23.9411    0.0388   27.7865 C   0  0  0  0  0  0  0  0  0  0  0  0
  -25.0420   -0.3844   28.4675 C   0  0  0  0  0  0  0  0  0  0  0  0
  -28.7623    0.1142   30.7677 C   0  0  0  0  0  0  0  0  0  0  0  0
  -26.8511    1.5212   30.2105 C   0  0  0  0  0  0  0  0  0  0  0  0
  -27.0130    2.3985   30.7069 C   0  0  0  0  0  0  0  0  0  0  0  0
  -26.0276    3.4932   30.9529 C   0  0  0  0  0  0  0  0  0  0  0  0
  -24.8048    3.2975   30.2403 C   0  0  0  0  0  0  0  0  0  0  0  0
  -24.6165    2.2363   29.4611 C   0  0  0  0  0  0  0  0  0  0  0  0
  -25.5444    1.3695   29.4496 C   0  0  0  0  0  0  0  0  0  0  0  0
  -24.9262    0.2252   29.4561 C   0  0  0  0  0  0  0  0  0  0  0  0
  -27.6964    1.1938   26.2307 C   0  0  0  0  0  0  0  0  0  0  0  0
  -27.8123    1.9023   25.1943 C   0  0  0  0  0  0  0  0  0  0  0  0
  -29.0809    2.2196   24.7439 C   0  0  0  0  0  0  0  0  0  0  0  0
  -29.2685    3.3543   23.8746 C   0  0  0  0  0  0  0  0  0  0  0  0
  -30.2170    1.4667   25.0064 C   0  0  0  0  0  0  0  0  0  0  0  0
  -30.5632    3.6480   23.4809 C   0  0  0  0  0  0  0  0  0  0  0  0
  -31.4594    1.7332   24.5365 C   0  0  0  0  0  0  0  0  0  0  0  0
  -31.6574    2.9059   23.7471 C   0  0  0  0  0  0  0  0  0  0  0  0
  1  2  2  0
  2  3  1  0
  2  4  1  0
  4 10  1  0
  4 11  1  0
  9 17  1  0
 16 17  1  0
  5 18  1  0
 18 19  2  3
 19 20  1  0
 11 12  2  0
 12 13  1  0
 13 14  2  0
 14 15  1  0
 15 16  2  0
 16 11  1  0
  3  5  2  0
  5  6  1  0
  6  7  2  0
  7  8  1  0
  8  9  2  0
  9  3  1  0
 20 21  2  0
 21 23  1  0
 23 25  2  0
 25 24  1  0
 24 22  2  0
 22 20  1  0
M  END

$$$$
