No_3920-gen_results/8p0m/2024-11-27-11-27-31/
     RDKit          3D

 27 28  0  0  0  0  0  0  0  0999 V2000
  -28.0162   -0.8135   28.8779 C   0  0  0  0  0  0  0  0  0  0  0  0
  -27.0636   -0.1189   28.6079 C   0  0  0  0  0  0  0  0  0  0  0  0
  -25.7923   -0.4302   29.0761 C   0  0  0  0  0  0  0  0  0  0  0  0
  -24.5456    0.3494   28.8225 C   0  0  0  0  0  0  0  0  0  0  0  0
  -23.2409    0.0217   29.3323 C   0  0  0  0  0  0  0  0  0  0  0  0
  -22.1362    0.7695   29.0059 C   0  0  0  0  0  0  0  0  0  0  0  0
  -27.9050   -1.8984   29.8729 C   0  0  0  0  0  0  0  0  0  0  0  0
  -26.6795   -2.3145   30.3184 C   0  0  0  0  0  0  0  0  0  0  0  0
  -25.5203   -1.5564   29.9775 C   0  0  0  0  0  0  0  0  0  0  0  0
  -22.1155    1.7338   28.0257 C   0  0  0  0  0  0  0  0  0  0  0  0
  -24.5222    1.3908   27.7909 C   0  0  0  0  0  0  0  0  0  0  0  0
  -23.3248    2.0519   27.4472 C   0  0  0  0  0  0  0  0  0  0  0  0
  -28.9459   -2.6440   30.2079 F   0  0  0  0  0  0  0  0  0  0  0  0
  -23.4158    2.9891   26.4876 O   0  0  0  0  0  0  0  0  0  0  0  0
  -24.7480    3.4443   26.1999 C   0  0  0  0  0  0  0  0  0  0  0  0
  -27.1526    0.9119   27.7400 F   0  0  0  0  0  0  0  0  0  0  0  0
  -29.2837   -0.5940   28.5223 O   0  0  0  0  0  0  0  0  0  0  0  0
  -29.5156    0.3244   27.5787 C   0  0  0  0  0  0  0  0  0  0  0  0
  -30.4024    1.2618   28.0996 C   0  0  0  0  0  0  0  0  0  0  0  0
  -30.9526    1.1590   29.1388 O   0  0  0  0  0  0  0  0  0  0  0  0
  -30.1195   -0.3940   26.4645 O   0  0  0  0  0  0  0  0  0  0  0  0
  -31.4961    2.1601   29.8050 C   0  0  0  0  0  0  0  0  0  0  0  0
  -31.8848    1.9760   31.1332 C   0  0  0  0  0  0  0  0  0  0  0  0
  -31.5169    0.8704   31.7777 C   0  0  0  0  0  0  0  0  0  0  0  0
  -32.0920    0.5157   32.8795 C   0  0  0  0  0  0  0  0  0  0  0  0
  -31.6421   -0.6601   33.6077 C   0  0  0  0  0  0  0  0  0  0  0  0
  -32.1466   -1.1594   34.7302 C   0  0  0  0  0  0  0  0  0  0  0  0
  3  4  1  0
  7 13  1  0
 12 14  1  0
 14 15  1  0
  2 16  1  0
  1 17  1  0
 17 18  1  0
 18 19  1  0
 19 20  1  0
 18 21  1  0
 20 22  1  0
 22 23  1  0
 23 24  2  3
 24 25  1  0
 25 26  2  3
 26 27  1  0
  1  2  2  0
  2  3  1  0
  3  9  2  0
  9  8  1  0
  8  7  2  0
  7  1  1  0
  4  5  2  0
  5  6  1  0
  6 10  2  0
 10 12  1  0
 12 11  2  0
 11  4  1  0
M  END

$$$$
