No_3157-gen_results/8p0m/2024-11-27-11-27-31/
     RDKit          3D

 27 28  0  0  0  0  0  0  0  0999 V2000
  -28.0162   -0.8135   28.8779 C   0  0  0  0  0  0  0  0  0  0  0  0
  -28.4690   -0.7850   29.8287 C   0  0  0  0  0  0  0  0  0  0  0  0
  -28.1816    0.4277   28.1134 C   0  0  0  0  0  0  0  0  0  0  0  0
  -28.9841    1.4155   28.5154 C   0  0  0  0  0  0  0  0  0  0  0  0
  -29.3802    0.1384   30.4612 C   0  0  0  0  0  0  0  0  0  0  0  0
  -29.5415    1.2736   29.7242 C   0  0  0  0  0  0  0  0  0  0  0  0
  -27.3453    0.3423   26.8640 C   0  0  0  0  0  0  0  0  0  0  0  0
  -25.9994    0.2804   26.8842 N   0  0  0  0  0  0  0  0  0  0  0  0
  -25.3158   -0.0883   27.9459 C   0  0  0  0  0  0  0  0  0  0  0  0
  -23.9401    0.3287   28.0564 C   0  0  0  0  0  0  0  0  0  0  0  0
  -23.0673   -0.0603   29.1158 C   0  0  0  0  0  0  0  0  0  0  0  0
  -23.5810   -1.0654   29.9526 C   0  0  0  0  0  0  0  0  0  0  0  0
  -25.4435   -1.1685   28.8910 C   0  0  0  0  0  0  0  0  0  0  0  0
  -24.5830   -1.5139   29.7271 C   0  0  0  0  0  0  0  0  0  0  0  0
  -27.9602    0.5216   25.7878 O   0  0  0  0  0  0  0  0  0  0  0  0
  -23.4514    1.4853   27.2333 C   0  0  0  0  0  0  0  0  0  0  0  0
  -22.2210    1.6669   27.1304 N   0  0  0  0  0  0  0  0  0  0  0  0
  -24.2498    2.6198   26.9543 C   0  0  0  0  0  0  0  0  0  0  0  0
  -24.7152    3.5921   26.5940 C   0  0  0  0  0  0  0  0  0  0  0  0
  -25.5601    4.7807   26.5175 C   0  0  0  0  0  0  0  0  0  0  0  0
  -26.1603    5.6561   27.1767 N   0  0  0  0  0  0  0  0  0  0  0  0
  -25.5367    6.1905   28.0762 C   0  0  0  0  0  0  0  0  0  0  0  0
  -25.8865    6.6534   29.1416 C   0  0  0  0  0  0  0  0  0  0  0  0
  -25.1215    7.3468   30.1704 C   0  0  0  0  0  0  0  0  0  0  0  0
  -25.2850    7.2137   31.4914 C   0  0  0  0  0  0  0  0  0  0  0  0
  -26.4074    6.5218   31.9940 C   0  0  0  0  0  0  0  0  0  0  0  0
  -27.2125    5.8837   31.0534 C   0  0  0  0  0  0  0  0  0  0  0  0
  3  7  1  0
  7  8  1  0
  8  9  1  0
  7 15  2  0
 10 16  1  0
 16 17  2  0
 16 18  1  0
 18 19  3  0
 19 20  1  0
 20 21  1  0
 21 22  1  0
 22 23  2  3
 23 24  1  0
 24 25  1  0
 25 26  2  3
 26 27  1  0
  1  2  2  0
  2  5  1  0
  5  6  2  0
  6  4  1  0
  4  3  2  0
  3  1  1  0
  9 10  2  0
 10 11  1  0
 11 12  2  0
 12 14  1  0
 14 13  2  0
 13  9  1  0
M  END

$$$$
