No_3300-gen_results/8p0m/2024-11-27-11-27-31/
     RDKit          3D

 10 10  0  0  0  0  0  0  0  0999 V2000
  -28.1229   -1.3353   28.4874 O   0  0  0  0  0  0  0  0  0  0  0  0
  -27.4806   -0.4044   28.7094 C   0  0  0  0  0  0  0  0  0  0  0  0
  -26.3804   -0.0867   27.9394 C   0  0  0  0  0  0  0  0  0  0  0  0
  -27.4232    0.1749   30.0549 N   0  0  0  0  0  0  0  0  0  0  0  0
  -26.1558    0.1159   26.9677 C   0  0  0  0  0  0  0  0  0  0  0  0
  -25.8030    0.9179   26.1145 C   0  0  0  0  0  0  0  0  0  0  0  0
  -24.7358    1.9082   26.5542 C   0  0  0  0  0  0  0  0  0  0  0  0
  -24.4114    1.7067   27.9228 C   0  0  0  0  0  0  0  0  0  0  0  0
  -25.1987    0.8236   28.6649 C   0  0  0  0  0  0  0  0  0  0  0  0
  -28.5056   -0.2921   30.9809 C   0  0  0  0  0  0  0  0  0  0  0  0
  1  2  2  0
  2  3  1  0
  2  4  1  0
  4 10  1  0
  3  5  2  0
  5  6  1  0
  6  7  2  0
  7  8  1  0
  8  9  2  0
  9  3  1  0
M  END

$$$$
