No_3316-gen_results/8p0m/2024-11-27-11-27-31/
     RDKit          3D

 25 27  0  0  0  0  0  0  0  0999 V2000
  -28.0162   -0.8135   28.8779 C   0  0  0  0  0  0  0  0  0  0  0  0
  -28.4690   -0.7850   29.8287 C   0  0  0  0  0  0  0  0  0  0  0  0
  -27.0871    0.2903   28.6377 C   0  0  0  0  0  0  0  0  0  0  0  0
  -26.8317    1.2487   29.5869 C   0  0  0  0  0  0  0  0  0  0  0  0
  -28.3914    0.0801   31.0065 C   0  0  0  0  0  0  0  0  0  0  0  0
  -27.4940    1.1521   30.7841 C   0  0  0  0  0  0  0  0  0  0  0  0
  -26.3819    0.3661   27.4556 O   0  0  0  0  0  0  0  0  0  0  0  0
  -25.0356    0.3699   27.4975 C   0  0  0  0  0  0  0  0  0  0  0  0
  -24.4167    1.4079   26.6804 C   0  0  0  0  0  0  0  0  0  0  0  0
  -23.7725    2.4077   27.4299 C   0  0  0  0  0  0  0  0  0  0  0  0
  -22.9475    2.0071   28.5091 C   0  0  0  0  0  0  0  0  0  0  0  0
  -23.2976    0.7571   29.1136 C   0  0  0  0  0  0  0  0  0  0  0  0
  -24.3913   -0.1019   28.6421 C   0  0  0  0  0  0  0  0  0  0  0  0
  -22.5931    0.2696   30.3206 C   0  0  0  0  0  0  0  0  0  0  0  0
  -23.1068   -0.0742   31.2437 O   0  0  0  0  0  0  0  0  0  0  0  0
  -21.2451    0.0723   30.1157 O   0  0  0  0  0  0  0  0  0  0  0  0
  -29.4974   -2.0081   30.2095 C   0  0  0  0  0  0  0  0  0  0  0  0
  -30.4453   -1.9838   29.6154 O   0  0  0  0  0  0  0  0  0  0  0  0
  -29.1472   -2.8877   31.1183 O   0  0  0  0  0  0  0  0  0  0  0  0
  -27.3055    2.1516   31.8816 C   0  0  0  0  0  0  0  0  0  0  0  0
  -27.9855    2.5817   32.6196 C   0  0  0  0  0  0  0  0  0  0  0  0
  -27.7028    3.5812   33.6255 C   0  0  0  0  0  0  0  0  0  0  0  0
  -25.8744    2.5101   32.0948 C   0  0  0  0  0  0  0  0  0  0  0  0
  -25.4320    3.4680   32.9569 C   0  0  0  0  0  0  0  0  0  0  0  0
  -26.3933    4.0070   33.7830 C   0  0  0  0  0  0  0  0  0  0  0  0
  3  7  1  0
  7  8  1  0
 12 14  1  0
 14 15  2  0
 14 16  1  0
  2 17  1  0
 17 18  2  0
 17 19  1  0
  6 20  1  0
 20 21  2  0
 21 22  1  0
 22 25  2  0
 25 24  1  0
 24 23  2  0
 23 20  1  0
  8  9  2  0
  9 10  1  0
 10 11  2  0
 11 12  1  0
 12 13  2  0
 13  8  1  0
  1  2  2  0
  2  5  1  0
  5  6  2  0
  6  4  1  0
  4  3  2  0
  3  1  1  0
M  END

$$$$
