No_3722-gen_results/8p0m/2024-11-27-11-27-31/
     RDKit          3D

 28 32  0  0  0  0  0  0  0  0999 V2000
  -28.0162   -0.8135   28.8779 C   0  0  0  0  0  0  0  0  0  0  0  0
  -27.0636   -0.1189   28.6079 C   0  0  0  0  0  0  0  0  0  0  0  0
  -26.9716    0.7139   27.5060 C   0  0  0  0  0  0  0  0  0  0  0  0
  -25.8205    1.4910   27.1160 C   0  0  0  0  0  0  0  0  0  0  0  0
  -24.6562    1.4242   27.9180 C   0  0  0  0  0  0  0  0  0  0  0  0
  -23.4598    2.1165   27.6160 C   0  0  0  0  0  0  0  0  0  0  0  0
  -23.0630    2.1753   26.6173 C   0  0  0  0  0  0  0  0  0  0  0  0
  -24.0308    2.2406   25.4725 C   0  0  0  0  0  0  0  0  0  0  0  0
  -25.3905    1.7548   25.7723 C   0  0  0  0  0  0  0  0  0  0  0  0
  -27.9705   -1.6089   30.1213 C   0  0  0  0  0  0  0  0  0  0  0  0
  -26.7499   -1.8439   30.7517 C   0  0  0  0  0  0  0  0  0  0  0  0
  -25.5965   -1.2342   30.3156 C   0  0  0  0  0  0  0  0  0  0  0  0
  -25.6686   -0.3733   29.2344 C   0  0  0  0  0  0  0  0  0  0  0  0
  -24.8037    0.5251   29.1457 C   0  0  0  0  0  0  0  0  0  0  0  0
  -28.0964    1.7807   27.5314 C   0  0  0  0  0  0  0  0  0  0  0  0
  -28.2146    2.6226   26.8348 C   0  0  0  0  0  0  0  0  0  0  0  0
  -29.0490    3.4526   26.6925 C   0  0  0  0  0  0  0  0  0  0  0  0
  -30.2535    3.3803   27.4624 C   0  0  0  0  0  0  0  0  0  0  0  0
  -30.3103    2.2901   28.3013 C   0  0  0  0  0  0  0  0  0  0  0  0
  -29.2775    1.4808   28.3983 C   0  0  0  0  0  0  0  0  0  0  0  0
  -27.3972   -0.1873   26.2480 C   0  0  0  0  0  0  0  0  0  0  0  0
  -29.2151   -2.4068   30.4682 C   0  0  0  0  0  0  0  0  0  0  0  0
  -29.2316   -3.5622   30.5059 O   0  0  0  0  0  0  0  0  0  0  0  0
  -30.3007   -1.7548   30.6649 O   0  0  0  0  0  0  0  0  0  0  0  0
  -23.6867    0.6327   29.9375 O   0  0  0  0  0  0  0  0  0  0  0  0
  -27.9588    0.4683   25.1879 C   0  0  0  0  0  0  0  0  0  0  0  0
  -28.4826   -0.2783   24.0785 C   0  0  0  0  0  0  0  0  0  0  0  0
  -28.2456    1.8934   25.0625 C   0  0  0  0  0  0  0  0  0  0  0  0
  2  3  1  0
  3  4  1  0
  5 14  1  0
 13 14  1  0
  3 15  1  0
  3 21  1  0
 10 22  1  0
 22 23  2  0
 22 24  1  0
 14 25  2  0
 21 26  1  0
 26 27  1  0
 16 28  1  0
 26 28  1  0
 15 20  1  0
 20 19  2  0
 19 18  1  0
 18 17  2  0
 17 16  1  0
 16 15  2  0
  1  2  2  0
  2 13  1  0
 13 12  2  0
 12 11  1  0
 11 10  2  0
 10  1  1  0
  4  5  2  0
  5  6  1  0
  6  7  2  0
  7  8  1  0
  8  9  2  0
  9  4  1  0
M  END

$$$$
