No_3677-gen_results/8p0m/2024-11-27-11-27-31/
     RDKit          3D

 19 20  0  0  0  0  0  0  0  0999 V2000
  -28.0162   -0.8135   28.8779 C   0  0  0  0  0  0  0  0  0  0  0  0
  -28.4690   -0.7850   29.8287 C   0  0  0  0  0  0  0  0  0  0  0  0
  -26.5455   -0.8762   28.8500 C   0  0  0  0  0  0  0  0  0  0  0  0
  -25.8041   -1.0324   30.0571 C   0  0  0  0  0  0  0  0  0  0  0  0
  -26.5373   -1.0386   31.2171 C   0  0  0  0  0  0  0  0  0  0  0  0
  -27.8843   -0.9532   31.1862 C   0  0  0  0  0  0  0  0  0  0  0  0
  -24.3555   -1.1121   30.0346 C   0  0  0  0  0  0  0  0  0  0  0  0
  -23.6610    0.1027   29.8448 C   0  0  0  0  0  0  0  0  0  0  0  0
  -22.4205    0.1575   29.1928 C   0  0  0  0  0  0  0  0  0  0  0  0
  -21.8312    1.3420   28.8564 C   0  0  0  0  0  0  0  0  0  0  0  0
  -24.1357    1.3453   30.3719 C   0  0  0  0  0  0  0  0  0  0  0  0
  -25.3467    1.3667   31.1799 C   0  0  0  0  0  0  0  0  0  0  0  0
  -22.5979    2.5943   28.8678 C   0  0  0  0  0  0  0  0  0  0  0  0
  -23.6577    2.5843   29.8584 C   0  0  0  0  0  0  0  0  0  0  0  0
  -25.7994   -0.8429   27.6615 N   0  0  0  0  0  0  0  0  0  0  0  0
  -25.9975    2.6541   31.0459 C   0  0  0  0  0  0  0  0  0  0  0  0
  -26.8380    2.7239   29.9636 C   0  0  0  0  0  0  0  0  0  0  0  0
  -27.2724    4.0240   29.6287 C   0  0  0  0  0  0  0  0  0  0  0  0
  -28.0209    4.1889   28.4084 C   0  0  0  0  0  0  0  0  0  0  0  0
  4  7  1  0
  7  8  1  0
 11 12  1  0
  3 15  1  0
 12 16  1  0
 16 17  1  0
 17 18  2  3
 18 19  1  0
  8  9  2  0
  9 10  1  0
 10 13  2  0
 13 14  1  0
 14 11  2  0
 11  8  1  0
  1  2  2  0
  2  6  1  0
  6  5  2  0
  5  4  1  0
  4  3  2  0
  3  1  1  0
M  END

$$$$
