No_3337-gen_results/8p0m/2024-11-27-11-27-31/
     RDKit          3D

 19 20  0  0  0  0  0  0  0  0999 V2000
  -28.0162   -0.8135   28.8779 C   0  0  0  0  0  0  0  0  0  0  0  0
  -27.0636   -0.1189   28.6079 C   0  0  0  0  0  0  0  0  0  0  0  0
  -25.7647   -0.3897   29.0360 C   0  0  0  0  0  0  0  0  0  0  0  0
  -25.5296   -1.5302   29.9014 C   0  0  0  0  0  0  0  0  0  0  0  0
  -26.6577   -2.2915   30.2035 C   0  0  0  0  0  0  0  0  0  0  0  0
  -27.8548   -1.9555   29.7630 C   0  0  0  0  0  0  0  0  0  0  0  0
  -24.5349    0.4128   28.7431 C   0  0  0  0  0  0  0  0  0  0  0  0
  -24.0543    1.3255   29.5757 C   0  0  0  0  0  0  0  0  0  0  0  0
  -22.9412    2.1456   29.2103 C   0  0  0  0  0  0  0  0  0  0  0  0
  -22.2591    1.9298   27.9819 C   0  0  0  0  0  0  0  0  0  0  0  0
  -23.9347    0.1062   27.6999 C   0  0  0  0  0  0  0  0  0  0  0  0
  -22.7936    0.9239   27.1743 C   0  0  0  0  0  0  0  0  0  0  0  0
  -28.8081   -2.8088   30.1373 F   0  0  0  0  0  0  0  0  0  0  0  0
  -24.6955    1.6072   30.9156 C   0  0  0  0  0  0  0  0  0  0  0  0
  -24.8607    2.7353   31.3768 O   0  0  0  0  0  0  0  0  0  0  0  0
  -25.0086    0.5749   31.6179 O   0  0  0  0  0  0  0  0  0  0  0  0
  -27.2125    1.1141   27.7143 C   0  0  0  0  0  0  0  0  0  0  0  0
  -26.9151    1.6708   26.9147 C   0  0  0  0  0  0  0  0  0  0  0  0
  -27.3414    2.9067   26.3844 C   0  0  0  0  0  0  0  0  0  0  0  0
  3  7  1  0
  6 13  1  0
  8 14  1  0
 14 15  2  0
 14 16  1  0
  2 17  1  0
 17 18  2  3
 18 19  1  0
  7  8  2  0
  8  9  1  0
  9 10  2  0
 10 12  1  0
 12 11  2  0
 11  7  1  0
  1  2  2  0
  2  3  1  0
  3  4  2  0
  4  5  1  0
  5  6  2  0
  6  1  1  0
M  END

$$$$
