No_3152-gen_results/8p0m/2024-11-27-11-27-31/
     RDKit          3D

 13 14  0  0  0  0  0  0  0  0999 V2000
  -28.0162   -0.8135   28.8779 C   0  0  0  0  0  0  0  0  0  0  0  0
  -27.0636   -0.1189   28.6079 C   0  0  0  0  0  0  0  0  0  0  0  0
  -26.9716    0.7139   27.5060 C   0  0  0  0  0  0  0  0  0  0  0  0
  -28.1053    0.7744   26.6421 C   0  0  0  0  0  0  0  0  0  0  0  0
  -29.2008    0.1044   27.0527 C   0  0  0  0  0  0  0  0  0  0  0  0
  -29.2096   -0.6029   28.1853 C   0  0  0  0  0  0  0  0  0  0  0  0
  -30.7000    0.2517   25.9564 Br  0  0  0  0  0  0  0  0  0  0  0  0
  -25.6957   -0.2353   29.4191 C   0  0  0  0  0  0  0  0  0  0  0  0
  -24.7062   -0.9583   28.9265 C   0  0  0  0  0  0  0  0  0  0  0  0
  -23.4617   -1.0703   29.4618 C   0  0  0  0  0  0  0  0  0  0  0  0
  -23.1920   -0.2644   30.5839 C   0  0  0  0  0  0  0  0  0  0  0  0
  -25.4064    0.4534   30.5278 N   0  0  0  0  0  0  0  0  0  0  0  0
  -24.3746    0.5643   31.0269 C   0  0  0  0  0  0  0  0  0  0  0  0
  5  7  1  0
  2  8  1  0
  1  2  2  0
  2  3  1  0
  3  4  2  0
  4  5  1  0
  5  6  2  0
  6  1  1  0
  8  9  2  0
  9 10  1  0
 10 11  2  0
 11 13  1  0
 13 12  2  0
 12  8  1  0
M  END

$$$$
