No_3110-gen_results/8p0m/2024-11-27-11-27-31/
     RDKit          3D

 27 29  0  0  0  0  0  0  0  0999 V2000
  -28.0162   -0.8135   28.8779 C   0  0  0  0  0  0  0  0  0  0  0  0
  -28.4690   -0.7850   29.8287 C   0  0  0  0  0  0  0  0  0  0  0  0
  -28.1816    0.4277   28.1134 C   0  0  0  0  0  0  0  0  0  0  0  0
  -27.4498    0.6435   26.8500 C   0  0  0  0  0  0  0  0  0  0  0  0
  -26.4529    0.9939   26.6681 C   0  0  0  0  0  0  0  0  0  0  0  0
  -25.5857    1.7329   27.3465 C   0  0  0  0  0  0  0  0  0  0  0  0
  -24.5656    1.6487   27.8437 C   0  0  0  0  0  0  0  0  0  0  0  0
  -23.8436    0.4744   28.0673 C   0  0  0  0  0  0  0  0  0  0  0  0
  -23.6920   -0.1053   28.9390 C   0  0  0  0  0  0  0  0  0  0  0  0
  -29.4037    0.1242   30.4691 C   0  0  0  0  0  0  0  0  0  0  0  0
  -29.0068    1.3815   28.6060 C   0  0  0  0  0  0  0  0  0  0  0  0
  -29.6184    1.2523   29.7735 C   0  0  0  0  0  0  0  0  0  0  0  0
  -23.0446    0.6361   30.0998 C   0  0  0  0  0  0  0  0  0  0  0  0
  -28.3066    0.2250   25.6981 C   0  0  0  0  0  0  0  0  0  0  0  0
  -27.4271    0.3535   24.6212 C   0  0  0  0  0  0  0  0  0  0  0  0
  -26.2122    0.9930   25.1729 C   0  0  0  0  0  0  0  0  0  0  0  0
  -23.4126    1.9457   30.1056 C   0  0  0  0  0  0  0  0  0  0  0  0
  -24.1945    2.5600   29.0949 C   0  0  0  0  0  0  0  0  0  0  0  0
  -26.0985    3.2690   27.4468 C   0  0  0  0  0  0  0  0  0  0  0  0
  -29.6046   -0.3556   25.5977 C   0  0  0  0  0  0  0  0  0  0  0  0
  -30.5186   -0.1701   26.4322 O   0  0  0  0  0  0  0  0  0  0  0  0
  -29.8584   -1.1692   24.5350 N   0  0  0  0  0  0  0  0  0  0  0  0
  -31.1048   -1.8157   24.3421 C   0  0  0  0  0  0  0  0  0  0  0  0
  -28.2293   -2.1076   30.8233 C   0  0  0  0  0  0  0  0  0  0  0  0
  -27.1555   -2.4640   30.9817 O   0  0  0  0  0  0  0  0  0  0  0  0
  -29.2371   -2.6495   31.3611 O   0  0  0  0  0  0  0  0  0  0  0  0
  -32.1295   -1.2353   25.2181 C   0  0  0  0  0  0  0  0  0  0  0  0
  3  4  1  0
  4  5  2  0
  5  6  1  0
  4 14  1  0
 14 15  2  0
  5 16  1  0
 15 16  1  0
  6 19  1  0
 14 20  1  0
 20 21  2  0
 20 22  1  0
 22 23  1  0
  2 24  1  0
 24 25  2  0
 24 26  1  0
 23 27  1  0
  6  7  1  0
  1  2  2  0
  2 10  1  0
 10 12  2  0
 12 11  1  0
 11  3  2  0
  3  1  1  0
  7  8  2  0
  8  9  1  0
  9 13  2  0
 13 17  1  0
 17 18  2  0
 18  7  1  0
M  END

$$$$
