No_3552-gen_results/8p0m/2024-11-27-11-27-31/
     RDKit          3D

 30 33  0  0  0  0  0  0  0  0999 V2000
  -28.0162   -0.8135   28.8779 C   0  0  0  0  0  0  0  0  0  0  0  0
  -27.0636   -0.1190   28.6079 C   0  0  0  0  0  0  0  0  0  0  0  0
  -26.9716    0.7139   27.5060 C   0  0  0  0  0  0  0  0  0  0  0  0
  -28.1053    0.7744   26.6421 C   0  0  0  0  0  0  0  0  0  0  0  0
  -29.2008    0.1044   27.0527 C   0  0  0  0  0  0  0  0  0  0  0  0
  -28.0219   -1.5899   30.0879 C   0  0  0  0  0  0  0  0  0  0  0  0
  -29.1640   -0.6394   28.1484 C   0  0  0  0  0  0  0  0  0  0  0  0
  -27.1149   -2.3777   30.3500 O   0  0  0  0  0  0  0  0  0  0  0  0
  -29.0705   -1.6301   30.8602 O   0  0  0  0  0  0  0  0  0  0  0  0
  -30.4877    0.1435   26.3307 C   0  0  0  0  0  0  0  0  0  0  0  0
  -30.8795    1.1817   25.8481 N   0  0  0  0  0  0  0  0  0  0  0  0
  -31.1905   -0.8780   26.1868 O   0  0  0  0  0  0  0  0  0  0  0  0
  -30.2818    2.5492   26.0388 C   0  0  0  0  0  0  0  0  0  0  0  0
  -32.1568    1.2506   25.0384 C   0  0  0  0  0  0  0  0  0  0  0  0
  -25.7049    1.3958   27.0764 C   0  0  0  0  0  0  0  0  0  0  0  0
  -25.5445    2.2762   26.2913 C   0  0  0  0  0  0  0  0  0  0  0  0
  -24.1937    2.8003   26.0010 C   0  0  0  0  0  0  0  0  0  0  0  0
  -23.1048    2.2052   26.5772 C   0  0  0  0  0  0  0  0  0  0  0  0
  -24.4531    0.7952   27.6368 C   0  0  0  0  0  0  0  0  0  0  0  0
  -23.2766    1.2374   27.4748 C   0  0  0  0  0  0  0  0  0  0  0  0
  -22.0798    0.6733   28.1648 C   0  0  0  0  0  0  0  0  0  0  0  0
  -21.9662    0.9349   29.2952 F   0  0  0  0  0  0  0  0  0  0  0  0
  -20.9385    1.1866   27.5243 F   0  0  0  0  0  0  0  0  0  0  0  0
  -22.0336   -0.6207   28.0278 F   0  0  0  0  0  0  0  0  0  0  0  0
  -25.8117   -1.9455   30.2667 C   0  0  0  0  0  0  0  0  0  0  0  0
  -24.8023   -2.8395   30.9059 C   0  0  0  0  0  0  0  0  0  0  0  0
  -23.3997   -2.1977   30.5159 C   0  0  0  0  0  0  0  0  0  0  0  0
  -23.6819   -1.1240   29.7608 C   0  0  0  0  0  0  0  0  0  0  0  0
  -25.1291   -0.9609   29.6326 C   0  0  0  0  0  0  0  0  0  0  0  0
  -25.7591   -0.0769   28.8728 O   0  0  0  0  0  0  0  0  0  0  0  0
  1  6  1  0
  6  8  1  0
  6  9  2  0
  5 10  1  0
 10 11  1  0
 10 12  2  0
 11 13  1  0
 11 14  1  0
  3 15  1  0
 20 21  1  0
 21 22  1  0
 21 23  1  0
 21 24  1  0
  8 25  1  0
 25 26  2  0
 26 27  1  0
 27 28  2  0
 25 29  1  0
 28 29  1  0
  2 30  1  0
 29 30  1  0
 15 16  2  0
 16 17  1  0
 17 18  2  0
 18 20  1  0
 20 19  2  0
 19 15  1  0
  1  2  2  0
  2  3  1  0
  3  4  2  0
  4  5  1  0
  5  7  2  0
  7  1  1  0
M  END

$$$$
