No_3587-gen_results/8p0m/2024-11-27-11-27-31/
     RDKit          3D

 32 35  0  0  0  0  0  0  0  0999 V2000
  -28.0162   -0.8135   28.8779 C   0  0  0  0  0  0  0  0  0  0  0  0
  -28.4690   -0.7850   29.8287 C   0  0  0  0  0  0  0  0  0  0  0  0
  -27.1356    0.2359   28.5352 C   0  0  0  0  0  0  0  0  0  0  0  0
  -26.8745    1.2825   29.3982 C   0  0  0  0  0  0  0  0  0  0  0  0
  -29.3953   -1.9237   30.2863 C   0  0  0  0  0  0  0  0  0  0  0  0
  -27.5236    1.2089   30.6379 C   0  0  0  0  0  0  0  0  0  0  0  0
  -28.3224    0.1273   30.9590 C   0  0  0  0  0  0  0  0  0  0  0  0
  -30.3935   -1.8354   30.1620 N   0  0  0  0  0  0  0  0  0  0  0  0
  -28.7890   -3.0305   30.7410 O   0  0  0  0  0  0  0  0  0  0  0  0
  -31.4088   -2.9424   30.3784 C   0  0  0  0  0  0  0  0  0  0  0  0
  -26.4183    0.3059   27.1959 C   0  0  0  0  0  0  0  0  0  0  0  0
  -26.4117    1.1988   26.4802 C   0  0  0  0  0  0  0  0  0  0  0  0
  -25.5435    1.1647   25.2532 C   0  0  0  0  0  0  0  0  0  0  0  0
  -24.3472    0.9784   25.2356 C   0  0  0  0  0  0  0  0  0  0  0  0
  -23.5766    1.1345   26.1860 C   0  0  0  0  0  0  0  0  0  0  0  0
  -22.6307    2.2847   26.4672 C   0  0  0  0  0  0  0  0  0  0  0  0
  -21.8594    2.3143   27.6425 C   0  0  0  0  0  0  0  0  0  0  0  0
  -22.1893    1.1297   28.5115 C   0  0  0  0  0  0  0  0  0  0  0  0
  -23.4907    0.4071   27.4914 C   0  0  0  0  0  0  0  0  0  0  0  0
  -27.2721    2.3911   26.5734 C   0  0  0  0  0  0  0  0  0  0  0  0
  -31.1866   -0.6094   29.6687 C   0  0  0  0  0  0  0  0  0  0  0  0
  -31.8486   -0.7830   28.4959 C   0  0  0  0  0  0  0  0  0  0  0  0
  -32.8339   -1.7840   28.5259 C   0  0  0  0  0  0  0  0  0  0  0  0
  -32.3039   -3.1186   29.1525 C   0  0  0  0  0  0  0  0  0  0  0  0
  -30.9888   -0.8515   27.2469 C   0  0  0  0  0  0  0  0  0  0  0  0
  -30.9992    0.5160   26.6202 C   0  0  0  0  0  0  0  0  0  0  0  0
  -30.3674    0.5593   25.3312 C   0  0  0  0  0  0  0  0  0  0  0  0
  -31.4969    1.6493   27.2133 C   0  0  0  0  0  0  0  0  0  0  0  0
  -31.3815    2.8962   26.5730 C   0  0  0  0  0  0  0  0  0  0  0  0
  -30.2801    1.8619   24.7141 C   0  0  0  0  0  0  0  0  0  0  0  0
  -30.7786    3.0370   25.3263 C   0  0  0  0  0  0  0  0  0  0  0  0
  -27.0621    3.5010   25.6009 C   0  0  0  0  0  0  0  0  0  0  0  0
  2  5  1  0
  5  8  1  0
  5  9  2  0
  8 10  1  0
  3 11  1  0
 11 12  2  3
 12 13  1  0
 13 14  2  3
 14 15  1  0
 15 16  2  0
 16 17  1  0
 17 18  2  0
 15 19  1  0
 18 19  1  0
 12 20  1  0
  8 21  1  0
 22 23  1  0
 10 24  1  0
 23 24  1  0
 22 25  1  0
 25 26  1  0
 20 32  2  0
 22 21  1  0
 26 27  2  0
 27 30  1  0
 30 31  2  0
 31 29  1  0
 29 28  2  0
 28 26  1  0
  1  2  2  0
  2  7  1  0
  7  6  2  0
  6  4  1  0
  4  3  2  0
  3  1  1  0
M  END

$$$$
