No_3695-gen_results/8p0m/2024-11-27-11-27-31/
     RDKit          3D

 29 31  0  0  0  0  0  0  0  0999 V2000
  -28.0162   -0.8135   28.8779 C   0  0  0  0  0  0  0  0  0  0  0  0
  -28.4690   -0.7850   29.8287 C   0  0  0  0  0  0  0  0  0  0  0  0
  -26.5455   -0.8762   28.8500 C   0  0  0  0  0  0  0  0  0  0  0  0
  -25.8041   -1.0324   30.0571 C   0  0  0  0  0  0  0  0  0  0  0  0
  -27.9437   -0.9869   31.2075 C   0  0  0  0  0  0  0  0  0  0  0  0
  -26.5825   -1.0386   31.2231 C   0  0  0  0  0  0  0  0  0  0  0  0
  -30.0606   -0.7371   29.9024 C   0  0  0  0  0  0  0  0  0  0  0  0
  -30.5524   -0.2769   29.0111 O   0  0  0  0  0  0  0  0  0  0  0  0
  -30.6945   -0.8427   31.0455 O   0  0  0  0  0  0  0  0  0  0  0  0
  -24.5153   -1.0786   30.0632 F   0  0  0  0  0  0  0  0  0  0  0  0
  -25.4800   -0.8430   27.7462 C   0  0  0  0  0  0  0  0  0  0  0  0
  -25.1754    0.5188   27.3413 C   0  0  0  0  0  0  0  0  0  0  0  0
  -24.9862    1.1562   26.5528 C   0  0  0  0  0  0  0  0  0  0  0  0
  -24.9796    0.7529   25.1233 C   0  0  0  0  0  0  0  0  0  0  0  0
  -24.6181    2.6502   26.5169 C   0  0  0  0  0  0  0  0  0  0  0  0
  -25.4386    3.4682   27.2192 C   0  0  0  0  0  0  0  0  0  0  0  0
  -25.6509    2.9363   28.6071 C   0  0  0  0  0  0  0  0  0  0  0  0
  -25.3625    1.5065   28.7952 C   0  0  0  0  0  0  0  0  0  0  0  0
  -25.9290    3.6618   29.7605 C   0  0  0  0  0  0  0  0  0  0  0  0
  -26.7083    4.5227   29.7333 O   0  0  0  0  0  0  0  0  0  0  0  0
  -25.3387    3.2676   30.9066 O   0  0  0  0  0  0  0  0  0  0  0  0
  -31.8025    0.1461   28.8117 C   0  0  0  0  0  0  0  0  0  0  0  0
  -31.9788    1.0225   27.7771 C   0  0  0  0  0  0  0  0  0  0  0  0
  -30.9681    1.8448   27.4265 C   0  0  0  0  0  0  0  0  0  0  0  0
  -30.8105    3.0881   28.0821 C   0  0  0  0  0  0  0  0  0  0  0  0
  -29.6635    3.9335   27.8031 C   0  0  0  0  0  0  0  0  0  0  0  0
  -28.8481    3.5664   26.7170 C   0  0  0  0  0  0  0  0  0  0  0  0
  -29.0213    2.3968   26.0441 C   0  0  0  0  0  0  0  0  0  0  0  0
  -30.0731    1.5529   26.4211 C   0  0  0  0  0  0  0  0  0  0  0  0
  2  7  1  0
  7  8  1  0
  7  9  2  0
  4 10  1  0
  3 11  1  0
 11 12  1  0
 13 14  1  0
 17 19  1  0
 19 20  2  0
 19 21  1  0
  8 22  1  0
 22 23  1  0
 23 24  1  0
 12 13  2  0
 13 15  1  0
 15 16  2  0
 16 17  1  0
 17 18  2  0
 18 12  1  0
 24 25  2  0
 25 26  1  0
 26 27  2  0
 27 28  1  0
 28 29  2  0
 29 24  1  0
  1  2  2  0
  2  5  1  0
  5  6  2  0
  6  4  1  0
  4  3  2  0
  3  1  1  0
M  END

$$$$
