No_3124-gen_results/8p0m/2024-11-27-11-27-31/
     RDKit          3D

 33 37  0  0  0  0  0  0  0  0999 V2000
  -28.0727   -1.2542   28.5316 F   0  0  0  0  0  0  0  0  0  0  0  0
  -27.0607   -0.6291   28.8721 C   0  0  0  0  0  0  0  0  0  0  0  0
  -26.3579   -0.0711   28.0115 C   0  0  0  0  0  0  0  0  0  0  0  0
  -25.0715    0.5530   28.2555 C   0  0  0  0  0  0  0  0  0  0  0  0
  -24.5772    0.4803   29.5696 C   0  0  0  0  0  0  0  0  0  0  0  0
  -25.3317   -0.2027   30.5060 C   0  0  0  0  0  0  0  0  0  0  0  0
  -26.4956   -0.7357   30.1606 C   0  0  0  0  0  0  0  0  0  0  0  0
  -24.2570    1.2519   27.2615 C   0  0  0  0  0  0  0  0  0  0  0  0
  -24.5845    1.8518   26.2650 C   0  0  0  0  0  0  0  0  0  0  0  0
  -22.7798    1.3770   27.6267 C   0  0  0  0  0  0  0  0  0  0  0  0
  -21.9441    2.0590   26.7220 C   0  0  0  0  0  0  0  0  0  0  0  0
  -23.7235    2.5772   25.3659 C   0  0  0  0  0  0  0  0  0  0  0  0
  -22.4104    2.6747   25.6708 C   0  0  0  0  0  0  0  0  0  0  0  0
  -26.7383   -0.0016   26.7302 O   0  0  0  0  0  0  0  0  0  0  0  0
  -27.9112    0.5125   26.3460 C   0  0  0  0  0  0  0  0  0  0  0  0
  -28.5295    1.3488   27.0212 C   0  0  0  0  0  0  0  0  0  0  0  0
  -29.3882    2.0383   26.8527 C   0  0  0  0  0  0  0  0  0  0  0  0
  -30.0406    3.0799   27.7369 C   0  0  0  0  0  0  0  0  0  0  0  0
  -29.5558    3.1933   29.0386 C   0  0  0  0  0  0  0  0  0  0  0  0
  -28.5244    2.3475   29.4308 C   0  0  0  0  0  0  0  0  0  0  0  0
  -27.9850    1.5103   28.5211 C   0  0  0  0  0  0  0  0  0  0  0  0
  -26.6837    1.5608   28.9997 Br  0  0  0  0  0  0  0  0  0  0  0  0
  -28.4144    0.1265   25.0627 C   0  0  0  0  0  0  0  0  0  0  0  0
  -29.6558    0.4695   24.6615 C   0  0  0  0  0  0  0  0  0  0  0  0
  -30.1789    1.6487   25.5276 C   0  0  0  0  0  0  0  0  0  0  0  0
  -31.4903    2.2365   25.1219 C   0  0  0  0  0  0  0  0  0  0  0  0
  -32.4876    1.8367   25.7315 C   0  0  0  0  0  0  0  0  0  0  0  0
  -32.7833    0.9714   26.3901 C   0  0  0  0  0  0  0  0  0  0  0  0
  -34.0299    0.5904   27.0552 C   0  0  0  0  0  0  0  0  0  0  0  0
  -35.0789    1.4571   26.7771 C   0  0  0  0  0  0  0  0  0  0  0  0
  -34.9124    2.5428   25.9894 C   0  0  0  0  0  0  0  0  0  0  0  0
  -33.6906    2.8684   25.4513 C   0  0  0  0  0  0  0  0  0  0  0  0
  -31.2120    3.1723   24.2711 O   0  0  0  0  0  0  0  0  0  0  0  0
  1  2  1  0
  4  8  1  0
  3 14  1  0
 14 15  1  0
 21 22  1  0
 25 26  1  0
 26 27  1  0
 26 33  2  0
  2  3  2  0
  3  4  1  0
  4  5  2  0
  5  6  1  0
  6  7  2  0
  7  2  1  0
 27 28  2  0
 28 29  1  0
 29 30  2  0
 30 31  1  0
 31 32  2  0
 32 27  1  0
 15 16  1  0
 17 25  1  0
 25 24  2  0
 24 23  1  0
 23 15  2  0
  8  9  2  0
  9 12  1  0
 12 13  2  0
 13 11  1  0
 11 10  2  0
 10  8  1  0
 16 17  1  0
 17 18  2  0
 18 19  1  0
 19 20  2  0
 20 21  1  0
 21 16  2  0
M  END

$$$$
