No_3244-gen_results/8p0m/2024-11-27-11-27-31/
     RDKit          3D

 28 30  0  0  0  0  0  0  0  0999 V2000
  -28.0162   -0.8135   28.8779 C   0  0  0  0  0  0  0  0  0  0  0  0
  -27.0636   -0.1189   28.6079 C   0  0  0  0  0  0  0  0  0  0  0  0
  -26.9716    0.7139   27.5060 C   0  0  0  0  0  0  0  0  0  0  0  0
  -28.1053    0.7744   26.6421 C   0  0  0  0  0  0  0  0  0  0  0  0
  -28.0677    1.4872   25.5121 C   0  0  0  0  0  0  0  0  0  0  0  0
  -27.9701   -1.5888   30.1391 C   0  0  0  0  0  0  0  0  0  0  0  0
  -29.0579   -2.4478   30.5451 C   0  0  0  0  0  0  0  0  0  0  0  0
  -29.2031    1.5029   24.7226 C   0  0  0  0  0  0  0  0  0  0  0  0
  -30.2702    0.7204   25.0002 C   0  0  0  0  0  0  0  0  0  0  0  0
  -30.2337   -0.0418   26.1521 C   0  0  0  0  0  0  0  0  0  0  0  0
  -29.2004   -0.0133   26.9446 C   0  0  0  0  0  0  0  0  0  0  0  0
  -29.1865   -0.7867   28.1505 C   0  0  0  0  0  0  0  0  0  0  0  0
  -26.7741   -1.6455   30.9929 C   0  0  0  0  0  0  0  0  0  0  0  0
  -29.9778   -2.1045   31.0350 O   0  0  0  0  0  0  0  0  0  0  0  0
  -28.7457   -3.7418   30.5802 O   0  0  0  0  0  0  0  0  0  0  0  0
  -26.6621   -0.5756   31.7040 O   0  0  0  0  0  0  0  0  0  0  0  0
  -25.4655   -0.2785   32.1963 C   0  0  0  0  0  0  0  0  0  0  0  0
  -25.4555    1.0809   32.6673 C   0  0  0  0  0  0  0  0  0  0  0  0
  -26.2859    1.5679   33.6485 C   0  0  0  0  0  0  0  0  0  0  0  0
  -27.1040    0.7398   34.3222 C   0  0  0  0  0  0  0  0  0  0  0  0
  -28.0624    1.2587   35.2517 C   0  0  0  0  0  0  0  0  0  0  0  0
  -28.1072    2.6754   35.3787 C   0  0  0  0  0  0  0  0  0  0  0  0
  -27.2832    3.5379   34.7050 C   0  0  0  0  0  0  0  0  0  0  0  0
  -26.3447    3.0297   33.8029 C   0  0  0  0  0  0  0  0  0  0  0  0
  -25.4754    3.8892   33.0541 C   0  0  0  0  0  0  0  0  0  0  0  0
  -24.4955    3.3670   31.7818 Cl  0  0  0  0  0  0  0  0  0  0  0  0
  -25.3876    5.3430   33.3008 C   0  0  0  0  0  0  0  0  0  0  0  0
  -24.8712    5.7827   34.2927 N   0  0  0  0  0  0  0  0  0  0  0  0
  1  6  1  0
  6  7  1  0
  6 13  1  0
  7 14  2  0
  7 15  1  0
 13 16  1  0
 16 17  1  0
 17 18  1  0
 24 25  1  0
 25 26  1  0
 25 27  1  0
 27 28  2  0
 18 19  1  0
  1  2  2  0
  2  3  1  0
  3  4  2  0
 11 12  2  0
 12  1  1  0
 19 20  2  0
 20 21  1  0
 21 22  2  0
 22 23  1  0
 23 24  2  0
 24 19  1  0
  4  5  1  0
  5  8  2  0
  8  9  1  0
  9 10  2  0
 10 11  1  0
 11  4  1  0
M  END

$$$$
