No_3275-gen_results/8p0m/2024-11-27-11-27-31/
     RDKit          3D

 30 33  0  0  0  0  0  0  0  0999 V2000
  -28.0162   -0.8135   28.8779 C   0  0  0  0  0  0  0  0  0  0  0  0
  -28.4690   -0.7850   29.8287 C   0  0  0  0  0  0  0  0  0  0  0  0
  -27.0871    0.2903   28.6377 C   0  0  0  0  0  0  0  0  0  0  0  0
  -26.8317    1.2487   29.5869 C   0  0  0  0  0  0  0  0  0  0  0  0
  -28.3914    0.0801   31.0065 C   0  0  0  0  0  0  0  0  0  0  0  0
  -27.4940    1.1521   30.7841 C   0  0  0  0  0  0  0  0  0  0  0  0
  -26.3109    0.3918   27.3640 C   0  0  0  0  0  0  0  0  0  0  0  0
  -26.7672    1.0252   26.3723 C   0  0  0  0  0  0  0  0  0  0  0  0
  -28.0511    1.6308   26.4162 C   0  0  0  0  0  0  0  0  0  0  0  0
  -28.5576    2.1634   25.1543 C   0  0  0  0  0  0  0  0  0  0  0  0
  -27.8856    1.8225   23.9899 C   0  0  0  0  0  0  0  0  0  0  0  0
  -26.7580    1.1116   23.9687 C   0  0  0  0  0  0  0  0  0  0  0  0
  -26.1519    0.6644   25.1027 C   0  0  0  0  0  0  0  0  0  0  0  0
  -24.9838   -0.2530   27.4631 C   0  0  0  0  0  0  0  0  0  0  0  0
  -23.9352    0.6885   27.9314 C   0  0  0  0  0  0  0  0  0  0  0  0
  -22.9662    0.2249   28.8127 C   0  0  0  0  0  0  0  0  0  0  0  0
  -23.3632    1.6839   26.9635 C   0  0  0  0  0  0  0  0  0  0  0  0
  -22.1905    2.3018   27.2539 C   0  0  0  0  0  0  0  0  0  0  0  0
  -23.3354   -0.8214   29.8121 C   0  0  0  0  0  0  0  0  0  0  0  0
  -21.3667    1.8694   28.2740 C   0  0  0  0  0  0  0  0  0  0  0  0
  -21.7432    0.8738   29.0755 C   0  0  0  0  0  0  0  0  0  0  0  0
  -23.0275   -1.9118   29.7343 F   0  0  0  0  0  0  0  0  0  0  0  0
  -22.8108   -0.4499   31.0808 F   0  0  0  0  0  0  0  0  0  0  0  0
  -24.7178   -0.7415   30.1037 F   0  0  0  0  0  0  0  0  0  0  0  0
  -27.2781    2.1667   31.8868 C   0  0  0  0  0  0  0  0  0  0  0  0
  -27.9777    2.6607   32.5854 C   0  0  0  0  0  0  0  0  0  0  0  0
  -25.7843    2.4891   31.9703 C   0  0  0  0  0  0  0  0  0  0  0  0
  -25.3725    3.4440   32.9023 C   0  0  0  0  0  0  0  0  0  0  0  0
  -27.6586    3.6647   33.6062 C   0  0  0  0  0  0  0  0  0  0  0  0
  -26.2830    4.0377   33.7260 C   0  0  0  0  0  0  0  0  0  0  0  0
  3  7  1  0
  7 14  1  0
 14 15  1  0
 16 19  1  0
 19 22  1  0
 19 23  1  0
 19 24  1  0
  6 25  1  0
  7  8  1  0
 15 16  2  0
 16 21  1  0
 21 20  2  0
 20 18  1  0
 18 17  2  0
 17 15  1  0
  8  9  2  0
  9 10  1  0
 10 11  2  0
 11 12  1  0
 12 13  2  0
 13  8  1  0
  1  2  2  0
  2  5  1  0
  5  6  2  0
  6  4  1  0
  4  3  2  0
  3  1  1  0
 25 26  2  0
 26 29  1  0
 29 30  2  0
 30 28  1  0
 28 27  2  0
 27 25  1  0
M  END

$$$$
