No_3056-gen_results/8p0m/2024-11-27-11-27-31/
     RDKit          3D

 20 22  0  0  0  0  0  0  0  0999 V2000
  -28.0162   -0.8135   28.8779 C   0  0  0  0  0  0  0  0  0  0  0  0
  -27.0636   -0.1190   28.6079 C   0  0  0  0  0  0  0  0  0  0  0  0
  -25.7923   -0.4302   29.0761 C   0  0  0  0  0  0  0  0  0  0  0  0
  -25.5756   -1.5654   29.9363 C   0  0  0  0  0  0  0  0  0  0  0  0
  -26.7354   -2.3004   30.2173 C   0  0  0  0  0  0  0  0  0  0  0  0
  -27.8207   -1.9449   29.7721 C   0  0  0  0  0  0  0  0  0  0  0  0
  -27.1052    1.1026   27.7598 C   0  0  0  0  0  0  0  0  0  0  0  0
  -26.1194    1.5036   27.0391 C   0  0  0  0  0  0  0  0  0  0  0  0
  -24.7114    1.1659   27.5441 C   0  0  0  0  0  0  0  0  0  0  0  0
  -24.5660    0.1202   28.4312 C   0  0  0  0  0  0  0  0  0  0  0  0
  -23.5428    1.8228   26.9534 C   0  0  0  0  0  0  0  0  0  0  0  0
  -22.4606    1.9789   27.6898 N   0  0  0  0  0  0  0  0  0  0  0  0
  -23.5393    2.3532   25.6445 C   0  0  0  0  0  0  0  0  0  0  0  0
  -29.0609   -2.7267   30.2589 C   0  0  0  0  0  0  0  0  0  0  0  0
  -28.9907   -4.0325   30.4809 N   0  0  0  0  0  0  0  0  0  0  0  0
  -29.6959   -2.0715   31.4647 C   0  0  0  0  0  0  0  0  0  0  0  0
  -29.7764   -4.8490   31.1723 C   0  0  0  0  0  0  0  0  0  0  0  0
  -30.7628   -2.8021   32.0701 C   0  0  0  0  0  0  0  0  0  0  0  0
  -30.3967   -4.2550   32.3192 C   0  0  0  0  0  0  0  0  0  0  0  0
  -27.8609   -4.7379   29.7595 C   0  0  0  0  0  0  0  0  0  0  0  0
  9 11  1  0
 11 12  1  0
 11 13  1  0
  6 14  1  0
 14 15  1  0
 14 16  1  0
 15 17  1  0
 17 19  1  0
 18 19  1  0
 15 20  1  0
 16 18  1  0
  1  2  2  0
  3  4  2  0
  4  5  1  0
  5  6  2  0
  6  1  1  0
  2  3  1  0
  3 10  1  0
 10  9  2  0
  9  8  1  0
  8  7  2  0
  7  2  1  0
M  END

$$$$
