No_3063-gen_results/8p0m/2024-11-27-11-27-31/
     RDKit          3D

 15 17  0  0  0  0  0  0  0  0999 V2000
  -28.0162   -0.8135   28.8779 C   0  0  0  0  0  0  0  0  0  0  0  0
  -27.0636   -0.1189   28.6079 C   0  0  0  0  0  0  0  0  0  0  0  0
  -25.7647   -0.3897   29.0360 C   0  0  0  0  0  0  0  0  0  0  0  0
  -24.5516    0.4058   28.7646 C   0  0  0  0  0  0  0  0  0  0  0  0
  -23.2300    0.1178   29.2575 C   0  0  0  0  0  0  0  0  0  0  0  0
  -23.0942   -1.1309   29.8730 C   0  0  0  0  0  0  0  0  0  0  0  0
  -29.3447   -0.3638   28.7645 C   0  0  0  0  0  0  0  0  0  0  0  0
  -29.5539    0.7832   27.9962 C   0  0  0  0  0  0  0  0  0  0  0  0
  -28.4765    1.5048   27.5499 C   0  0  0  0  0  0  0  0  0  0  0  0
  -27.1351    1.1613   27.9146 C   0  0  0  0  0  0  0  0  0  0  0  0
  -25.3127   -1.6505   29.7121 C   0  0  0  0  0  0  0  0  0  0  0  0
  -24.0717   -1.9625   30.0868 C   0  0  0  0  0  0  0  0  0  0  0  0
  -30.7829    1.1522   27.7497 F   0  0  0  0  0  0  0  0  0  0  0  0
  -24.6836    1.7003   28.0661 C   0  0  0  0  0  0  0  0  0  0  0  0
  -26.0447    2.0259   27.6360 C   0  0  0  0  0  0  0  0  0  0  0  0
  8 13  1  0
  1  2  2  0
 10  9  2  0
  9  8  1  0
  8  7  2  0
  7  1  1  0
  2  3  1  0
  4 14  1  0
 14 15  2  0
 15 10  1  0
 10  2  1  0
  3  4  2  0
  4  5  1  0
  5  6  2  0
  6 12  1  0
 12 11  2  0
 11  3  1  0
M  END

$$$$
