No_3653-gen_results/8p0m/2024-11-27-11-27-31/
     RDKit          3D

 29 31  0  0  0  0  0  0  0  0999 V2000
  -28.0162   -0.8135   28.8779 C   0  0  0  0  0  0  0  0  0  0  0  0
  -28.4690   -0.7850   29.8287 C   0  0  0  0  0  0  0  0  0  0  0  0
  -26.5042   -0.7777   28.8766 C   0  0  0  0  0  0  0  0  0  0  0  0
  -25.8103   -0.8531   30.1028 C   0  0  0  0  0  0  0  0  0  0  0  0
  -27.9906   -0.8916   31.2257 C   0  0  0  0  0  0  0  0  0  0  0  0
  -26.6042   -0.8676   31.2652 C   0  0  0  0  0  0  0  0  0  0  0  0
  -30.0739   -0.8360   29.8615 C   0  0  0  0  0  0  0  0  0  0  0  0
  -30.6891   -1.6554   30.2229 O   0  0  0  0  0  0  0  0  0  0  0  0
  -30.6139    0.2846   29.2227 N   0  0  0  0  0  0  0  0  0  0  0  0
  -32.0200    0.3382   29.0215 C   0  0  0  0  0  0  0  0  0  0  0  0
  -29.8434    1.4262   28.7504 C   0  0  0  0  0  0  0  0  0  0  0  0
  -30.0696    2.5922   29.5725 C   0  0  0  0  0  0  0  0  0  0  0  0
  -29.3221    3.5644   29.2493 C   0  0  0  0  0  0  0  0  0  0  0  0
  -28.3501    3.6286   28.1794 C   0  0  0  0  0  0  0  0  0  0  0  0
  -28.2337    2.4801   27.4449 C   0  0  0  0  0  0  0  0  0  0  0  0
  -28.9437    1.3380   27.7818 C   0  0  0  0  0  0  0  0  0  0  0  0
  -25.6587   -0.7042   27.6763 C   0  0  0  0  0  0  0  0  0  0  0  0
  -24.3301   -0.4090   27.8012 C   0  0  0  0  0  0  0  0  0  0  0  0
  -23.6907   -0.5116   29.0870 C   0  0  0  0  0  0  0  0  0  0  0  0
  -24.4166   -0.6544   30.1932 C   0  0  0  0  0  0  0  0  0  0  0  0
  -22.2156   -0.3373   29.0925 C   0  0  0  0  0  0  0  0  0  0  0  0
  -21.3542   -1.1112   29.5107 N   0  0  0  0  0  0  0  0  0  0  0  0
  -21.7858    0.9524   28.7232 N   0  0  0  0  0  0  0  0  0  0  0  0
  -27.2366    2.5126   26.3500 C   0  0  0  0  0  0  0  0  0  0  0  0
  -26.0997    3.2116   26.4181 C   0  0  0  0  0  0  0  0  0  0  0  0
  -24.9200    3.2302   26.8097 C   0  0  0  0  0  0  0  0  0  0  0  0
  -23.9052    4.1446   26.7180 C   0  0  0  0  0  0  0  0  0  0  0  0
  -24.3702    5.4334   26.2205 C   0  0  0  0  0  0  0  0  0  0  0  0
  -25.6668    5.7021   26.0257 C   0  0  0  0  0  0  0  0  0  0  0  0
  2  7  1  0
  7  8  2  0
  7  9  1  0
  9 10  1  0
  9 11  1  0
 19 21  1  0
 21 22  2  0
 21 23  1  0
 15 24  1  0
 24 25  2  3
 25 26  1  0
 26 27  2  3
 27 28  1  0
 28 29  2  0
 11 12  2  0
 12 13  1  0
 13 14  2  0
 14 15  1  0
 15 16  2  0
 16 11  1  0
  1  2  2  0
  2  5  1  0
  5  6  2  0
  6  4  1  0
  3  1  1  0
  3  4  2  0
  4 20  1  0
 20 19  2  0
 19 18  1  0
 18 17  2  0
 17  3  1  0
M  END

$$$$
