No_3011-gen_results/8p0m/2024-11-27-11-27-31/
     RDKit          3D

 18 21  0  0  0  0  0  0  0  0999 V2000
  -28.0162   -0.8135   28.8779 C   0  0  0  0  0  0  0  0  0  0  0  0
  -27.0636   -0.1190   28.6079 C   0  0  0  0  0  0  0  0  0  0  0  0
  -25.7647   -0.3897   29.0360 C   0  0  0  0  0  0  0  0  0  0  0  0
  -25.5296   -1.5302   29.9014 C   0  0  0  0  0  0  0  0  0  0  0  0
  -26.6888   -2.2893   30.1810 C   0  0  0  0  0  0  0  0  0  0  0  0
  -27.8727   -1.9508   29.7373 C   0  0  0  0  0  0  0  0  0  0  0  0
  -24.6273    0.3693   28.7540 N   0  0  0  0  0  0  0  0  0  0  0  0
  -23.3815    0.0449   28.9577 C   0  0  0  0  0  0  0  0  0  0  0  0
  -22.3794    1.0071   28.5440 C   0  0  0  0  0  0  0  0  0  0  0  0
  -24.8220    1.7485   28.4509 C   0  0  0  0  0  0  0  0  0  0  0  0
  -26.0721    2.3238   28.2744 C   0  0  0  0  0  0  0  0  0  0  0  0
  -23.6866    2.5429   28.1493 C   0  0  0  0  0  0  0  0  0  0  0  0
  -22.5255    2.2151   28.2416 C   0  0  0  0  0  0  0  0  0  0  0  0
  -26.3442    3.6342   28.1326 C   0  0  0  0  0  0  0  0  0  0  0  0
  -27.1669    1.2501   28.4930 C   0  0  0  0  0  0  0  0  0  0  0  0
  -28.5419    1.8130   28.1368 C   0  0  0  0  0  0  0  0  0  0  0  0
  -28.7137    3.1516   27.8736 C   0  0  0  0  0  0  0  0  0  0  0  0
  -27.6522    4.0622   27.8913 C   0  0  0  0  0  0  0  0  0  0  0  0
  3  7  1  0
  7  8  1  0
  7 10  1  0
 10 11  1  0
 10 12  1  0
  9 13  1  0
  2 15  1  0
  8  9  1  0
 13 12  1  0
  1  2  2  0
  2  3  1  0
  3  4  2  0
  4  5  1  0
  5  6  2  0
  6  1  1  0
 11 14  2  0
 14 18  1  0
 18 17  2  0
 17 16  1  0
 16 15  2  0
 15 11  1  0
M  END

$$$$
