No_3464-gen_results/8p0m/2024-11-27-11-27-31/
     RDKit          3D

 15 16  0  0  0  0  0  0  0  0999 V2000
  -28.0162   -0.8135   28.8779 C   0  0  0  0  0  0  0  0  0  0  0  0
  -28.4690   -0.7850   29.8287 C   0  0  0  0  0  0  0  0  0  0  0  0
  -26.5042   -0.7777   28.8766 C   0  0  0  0  0  0  0  0  0  0  0  0
  -25.6540   -0.6597   27.7191 C   0  0  0  0  0  0  0  0  0  0  0  0
  -27.9180   -0.9374   31.1824 C   0  0  0  0  0  0  0  0  0  0  0  0
  -26.5424   -0.9399   31.2606 C   0  0  0  0  0  0  0  0  0  0  0  0
  -25.7832   -0.8935   30.1201 C   0  0  0  0  0  0  0  0  0  0  0  0
  -24.3179   -0.2373   27.8436 C   0  0  0  0  0  0  0  0  0  0  0  0
  -23.6632   -0.4277   29.0855 C   0  0  0  0  0  0  0  0  0  0  0  0
  -24.3624   -0.6461   30.1937 C   0  0  0  0  0  0  0  0  0  0  0  0
  -22.1965   -0.1594   29.1257 C   0  0  0  0  0  0  0  0  0  0  0  0
  -21.2459    0.3685   28.7359 N   0  0  0  0  0  0  0  0  0  0  0  0
  -30.0607   -0.8800   29.8649 C   0  0  0  0  0  0  0  0  0  0  0  0
  -30.7006   -1.7361   30.2409 O   0  0  0  0  0  0  0  0  0  0  0  0
  -30.6183    0.3024   29.7018 O   0  0  0  0  0  0  0  0  0  0  0  0
  9 11  1  0
 11 12  3  0
  2 13  1  0
 13 14  1  0
 13 15  2  0
  1  2  2  0
  2  5  1  0
  5  6  2  0
  6  7  1  0
  3  1  1  0
  3  4  2  0
  4  8  1  0
  8  9  2  0
  9 10  1  0
 10  7  2  0
  7  3  1  0
M  END

$$$$
