No_3954-gen_results/8p0m/2024-11-27-11-27-31/
     RDKit          3D

 33 35  0  0  0  0  0  0  0  0999 V2000
  -28.0162   -0.8135   28.8779 C   0  0  0  0  0  0  0  0  0  0  0  0
  -27.0636   -0.1190   28.6079 C   0  0  0  0  0  0  0  0  0  0  0  0
  -25.7923   -0.4302   29.0761 C   0  0  0  0  0  0  0  0  0  0  0  0
  -25.5756   -1.5654   29.9363 C   0  0  0  0  0  0  0  0  0  0  0  0
  -26.7354   -2.3004   30.2173 C   0  0  0  0  0  0  0  0  0  0  0  0
  -27.9184   -1.9537   29.7629 C   0  0  0  0  0  0  0  0  0  0  0  0
  -29.0001   -2.7012   30.1151 O   0  0  0  0  0  0  0  0  0  0  0  0
  -24.5290    0.3490   28.7998 C   0  0  0  0  0  0  0  0  0  0  0  0
  -23.3442    0.0060   29.1658 C   0  0  0  0  0  0  0  0  0  0  0  0
  -22.1783    0.7811   28.7783 C   0  0  0  0  0  0  0  0  0  0  0  0
  -22.3217    1.7499   27.7727 C   0  0  0  0  0  0  0  0  0  0  0  0
  -24.6102    1.3558   27.7479 C   0  0  0  0  0  0  0  0  0  0  0  0
  -25.8900    1.7030   27.2075 C   0  0  0  0  0  0  0  0  0  0  0  0
  -23.4708    2.0875   27.2950 C   0  0  0  0  0  0  0  0  0  0  0  0
  -27.0894    0.9929   27.6110 C   0  0  0  0  0  0  0  0  0  0  0  0
  -28.3516    1.3918   27.0336 C   0  0  0  0  0  0  0  0  0  0  0  0
  -28.5003    1.4766   25.8657 O   0  0  0  0  0  0  0  0  0  0  0  0
  -29.3918    1.5611   27.8850 N   0  0  0  0  0  0  0  0  0  0  0  0
  -30.6840    1.9373   27.3986 C   0  0  0  0  0  0  0  0  0  0  0  0
  -30.1323   -2.1535   30.5879 C   0  0  0  0  0  0  0  0  0  0  0  0
  -31.2418   -2.6446   29.9338 C   0  0  0  0  0  0  0  0  0  0  0  0
  -31.3397   -3.6657   29.5782 O   0  0  0  0  0  0  0  0  0  0  0  0
  -32.2129   -1.7714   29.5888 F   0  0  0  0  0  0  0  0  0  0  0  0
  -30.0955   -1.2702   31.5840 N   0  0  0  0  0  0  0  0  0  0  0  0
  -31.7222    1.5989   28.2731 C   0  0  0  0  0  0  0  0  0  0  0  0
  -31.4920    1.5555   29.4854 O   0  0  0  0  0  0  0  0  0  0  0  0
  -32.7937    0.8241   27.7673 N   0  0  0  0  0  0  0  0  0  0  0  0
  -33.9135    0.4292   28.5857 C   0  0  0  0  0  0  0  0  0  0  0  0
  -32.9711    0.5683   26.3607 C   0  0  0  0  0  0  0  0  0  0  0  0
  -29.5786   -1.4281   32.6648 C   0  0  0  0  0  0  0  0  0  0  0  0
  -29.3867   -0.2481   33.5145 C   0  0  0  0  0  0  0  0  0  0  0  0
  -29.9641    0.8788   33.0027 C   0  0  0  0  0  0  0  0  0  0  0  0
  -30.5351    1.0089   31.7817 C   0  0  0  0  0  0  0  0  0  0  0  0
  6  7  1  0
 15 16  1  0
 16 17  2  0
 16 18  1  0
 18 19  1  0
  7 20  1  0
 20 21  1  0
 21 22  2  0
 21 23  1  0
 20 24  2  3
 19 25  1  0
 25 26  2  0
 25 27  1  0
 27 28  1  0
 27 29  1  0
 24 30  1  0
 30 31  2  3
 31 32  1  0
 32 33  1  0
  1  2  2  0
  3  4  2  0
  4  5  1  0
  5  6  2  0
  6  1  1  0
  8  9  2  0
  9 10  1  0
 10 11  2  0
 11 14  1  0
 14 12  2  0
  2  3  1  0
  3  8  1  0
  8 12  1  0
 12 13  1  0
 13 15  2  0
 15  2  1  0
M  END

$$$$
