No_3421-gen_results/8p0m/2024-11-27-11-27-31/
     RDKit          3D

 13 14  0  0  0  0  0  0  0  0999 V2000
  -28.0162   -0.8135   28.8779 C   0  0  0  0  0  0  0  0  0  0  0  0
  -27.0636   -0.1190   28.6079 C   0  0  0  0  0  0  0  0  0  0  0  0
  -26.9716    0.7139   27.5060 C   0  0  0  0  0  0  0  0  0  0  0  0
  -28.1053    0.7744   26.6421 C   0  0  0  0  0  0  0  0  0  0  0  0
  -29.2041    0.1179   27.0477 C   0  0  0  0  0  0  0  0  0  0  0  0
  -29.2127   -0.6088   28.1281 C   0  0  0  0  0  0  0  0  0  0  0  0
  -25.6104    1.3028   27.2626 C   0  0  0  0  0  0  0  0  0  0  0  0
  -25.1406    2.2250   28.1273 C   0  0  0  0  0  0  0  0  0  0  0  0
  -24.1206    2.5275   28.4333 C   0  0  0  0  0  0  0  0  0  0  0  0
  -22.9626    1.8960   27.6477 C   0  0  0  0  0  0  0  0  0  0  0  0
  -23.3166    0.9720   26.7112 C   0  0  0  0  0  0  0  0  0  0  0  0
  -24.6102    0.6164   26.5537 C   0  0  0  0  0  0  0  0  0  0  0  0
  -27.9551    1.6081   25.4516 C   0  0  0  0  0  0  0  0  0  0  0  0
  3  7  1  0
  4 13  1  0
  1  2  2  0
  2  3  1  0
  3  4  2  0
  4  5  1  0
  5  6  2  0
  6  1  1  0
  7  8  2  0
  8  9  1  0
  9 10  2  0
 10 11  1  0
 11 12  2  0
 12  7  1  0
M  END

$$$$
