No_3260-gen_results/8p0m/2024-11-27-11-27-31/
     RDKit          3D

 21 23  0  0  0  0  0  0  0  0999 V2000
  -28.0162   -0.8135   28.8779 C   0  0  0  0  0  0  0  0  0  0  0  0
  -28.4690   -0.7850   29.8287 C   0  0  0  0  0  0  0  0  0  0  0  0
  -26.5042   -0.7777   28.8766 C   0  0  0  0  0  0  0  0  0  0  0  0
  -25.8103   -0.8531   30.1028 C   0  0  0  0  0  0  0  0  0  0  0  0
  -27.9906   -0.8916   31.2257 C   0  0  0  0  0  0  0  0  0  0  0  0
  -26.6042   -0.8676   31.2652 C   0  0  0  0  0  0  0  0  0  0  0  0
  -24.3894   -0.8049   30.1638 C   0  0  0  0  0  0  0  0  0  0  0  0
  -23.7660   -0.9500   31.0679 C   0  0  0  0  0  0  0  0  0  0  0  0
  -22.2665   -0.8379   31.2250 C   0  0  0  0  0  0  0  0  0  0  0  0
  -21.6701   -0.5264   30.0648 C   0  0  0  0  0  0  0  0  0  0  0  0
  -23.6437   -0.4433   28.9621 C   0  0  0  0  0  0  0  0  0  0  0  0
  -22.3479   -0.3035   28.9177 C   0  0  0  0  0  0  0  0  0  0  0  0
  -30.0865   -0.8367   30.0156 C   0  0  0  0  0  0  0  0  0  0  0  0
  -30.6715   -1.8362   30.1178 O   0  0  0  0  0  0  0  0  0  0  0  0
  -30.7185    0.3656   29.8611 N   0  0  0  0  0  0  0  0  0  0  0  0
  -30.0942    1.6507   29.7102 C   0  0  0  0  0  0  0  0  0  0  0  0
  -30.9576    2.5857   29.4645 C   0  0  0  0  0  0  0  0  0  0  0  0
  -30.4905    3.9391   29.3958 C   0  0  0  0  0  0  0  0  0  0  0  0
  -29.1041    4.2105   29.5086 C   0  0  0  0  0  0  0  0  0  0  0  0
  -28.2343    3.1365   29.7314 C   0  0  0  0  0  0  0  0  0  0  0  0
  -28.7488    1.8265   29.8758 C   0  0  0  0  0  0  0  0  0  0  0  0
  4  7  1  0
  2 13  1  0
 13 14  2  0
 13 15  1  0
 15 16  1  0
  7  8  2  0
  8  9  1  0
  9 10  2  0
 10 12  1  0
 12 11  2  0
 11  7  1  0
  1  2  2  0
  2  5  1  0
  5  6  2  0
  6  4  1  0
  4  3  2  0
  3  1  1  0
 16 17  2  0
 17 18  1  0
 18 19  2  0
 19 20  1  0
 20 21  2  0
 21 16  1  0
M  END

$$$$
