No_3176-gen_results/8p0m/2024-11-27-11-27-31/
     RDKit          3D

 17 19  0  0  0  0  0  0  0  0999 V2000
  -28.0162   -0.8135   28.8779 C   0  0  0  0  0  0  0  0  0  0  0  0
  -28.4690   -0.7850   29.8287 C   0  0  0  0  0  0  0  0  0  0  0  0
  -28.3026    0.2475   28.0344 N   0  0  0  0  0  0  0  0  0  0  0  0
  -27.3575    0.7612   27.1787 C   0  0  0  0  0  0  0  0  0  0  0  0
  -27.5957    1.3558   26.1152 C   0  0  0  0  0  0  0  0  0  0  0  0
  -25.9057    0.5871   27.5311 C   0  0  0  0  0  0  0  0  0  0  0  0
  -24.9735    1.1414   26.6222 C   0  0  0  0  0  0  0  0  0  0  0  0
  -26.6797    1.9200   25.1577 C   0  0  0  0  0  0  0  0  0  0  0  0
  -25.3393    1.8525   25.4998 C   0  0  0  0  0  0  0  0  0  0  0  0
  -29.6133    0.5823   27.8823 C   0  0  0  0  0  0  0  0  0  0  0  0
  -30.4433    0.2854   29.0730 C   0  0  0  0  0  0  0  0  0  0  0  0
  -29.9587   -0.7274   30.0117 C   0  0  0  0  0  0  0  0  0  0  0  0
  -23.5160    1.0321   27.0709 C   0  0  0  0  0  0  0  0  0  0  0  0
  -23.1145    0.2360   28.1511 C   0  0  0  0  0  0  0  0  0  0  0  0
  -25.4764   -0.1379   28.6784 C   0  0  0  0  0  0  0  0  0  0  0  0
  -24.1127   -0.3052   28.9697 C   0  0  0  0  0  0  0  0  0  0  0  0
  -32.0708    0.7444   29.0644 Cl  0  0  0  0  0  0  0  0  0  0  0  0
  1  2  1  0
  1  3  1  0
  3  4  1  0
  3 10  1  0
  2 12  1  0
 11 12  1  0
 11 17  1  0
 11 10  1  0
  7 13  2  0
 13 14  1  0
 14 16  2  0
 16 15  1  0
 15  6  2  0
  4  5  2  0
  5  8  1  0
  8  9  2  0
  9  7  1  0
  7  6  1  0
  6  4  1  0
M  END

$$$$
