No_3393-gen_results/8p0m/2024-11-27-11-27-31/
     RDKit          3D

 31 32  0  0  0  0  0  0  0  0999 V2000
  -28.0162   -0.8135   28.8779 C   0  0  0  0  0  0  0  0  0  0  0  0
  -27.0636   -0.1189   28.6079 C   0  0  0  0  0  0  0  0  0  0  0  0
  -26.9287    1.1713   29.0083 C   0  0  0  0  0  0  0  0  0  0  0  0
  -25.7702    2.0341   28.6884 C   0  0  0  0  0  0  0  0  0  0  0  0
  -24.7141    1.4431   27.9188 C   0  0  0  0  0  0  0  0  0  0  0  0
  -24.8590    0.0783   27.5836 C   0  0  0  0  0  0  0  0  0  0  0  0
  -25.9647   -0.6606   27.9164 C   0  0  0  0  0  0  0  0  0  0  0  0
  -28.0422   -1.5426   30.2417 C   0  0  0  0  0  0  0  0  0  0  0  0
  -29.0328   -2.4276   30.5592 N   0  0  0  0  0  0  0  0  0  0  0  0
  -23.5403    2.1626   27.5555 C   0  0  0  0  0  0  0  0  0  0  0  0
  -22.4303    1.6786   27.1697 N   0  0  0  0  0  0  0  0  0  0  0  0
  -23.6956    3.4534   27.4620 O   0  0  0  0  0  0  0  0  0  0  0  0
  -28.7708   -3.6556   30.9021 C   0  0  0  0  0  0  0  0  0  0  0  0
  -30.3599   -2.0057   30.5951 C   0  0  0  0  0  0  0  0  0  0  0  0
  -31.3074   -2.9527   30.5363 C   0  0  0  0  0  0  0  0  0  0  0  0
  -29.6868   -4.7350   30.8121 C   0  0  0  0  0  0  0  0  0  0  0  0
  -31.0101   -4.3248   30.8007 C   0  0  0  0  0  0  0  0  0  0  0  0
  -27.0917   -1.2889   31.0675 O   0  0  0  0  0  0  0  0  0  0  0  0
  -32.2401   -5.5181   30.8535 Cl  0  0  0  0  0  0  0  0  0  0  0  0
  -21.3472    1.2970   28.0804 C   0  0  0  0  0  0  0  0  0  0  0  0
  -21.1058   -0.1147   28.2571 C   0  0  0  0  0  0  0  0  0  0  0  0
  -21.9089   -0.6295   29.3386 C   0  0  0  0  0  0  0  0  0  0  0  0
  -22.9800   -1.0988   29.5787 C   0  0  0  0  0  0  0  0  0  0  0  0
  -23.5123   -1.6326   30.7880 C   0  0  0  0  0  0  0  0  0  0  0  0
  -22.9321   -1.2025   31.9749 C   0  0  0  0  0  0  0  0  0  0  0  0
  -23.6552   -1.6149   33.1710 C   0  0  0  0  0  0  0  0  0  0  0  0
  -24.9443   -0.9417   33.3661 C   0  0  0  0  0  0  0  0  0  0  0  0
  -25.2057   -0.6940   34.7994 C   0  0  0  0  0  0  0  0  0  0  0  0
  -24.8700   -1.5963   35.3955 F   0  0  0  0  0  0  0  0  0  0  0  0
  -24.6522    0.4216   35.2866 F   0  0  0  0  0  0  0  0  0  0  0  0
  -26.5772   -0.4501   34.8894 F   0  0  0  0  0  0  0  0  0  0  0  0
  1  2  1  0
  1  8  1  0
  8  9  1  0
  5 10  1  0
 10 11  1  0
 10 12  2  0
  9 13  1  0
  9 14  1  0
 15 17  1  0
 16 17  1  0
  8 18  2  0
 17 19  1  0
 11 20  1  0
 20 21  1  0
 21 22  2  3
 22 23  1  0
 23 24  2  3
 24 25  1  0
 25 26  1  0
 26 27  1  0
 27 28  1  0
 28 29  1  0
 28 30  1  0
 28 31  1  0
 13 16  1  0
 15 14  1  0
  2  3  2  0
  3  4  1  0
  4  5  2  0
  5  6  1  0
  6  7  2  0
  7  2  1  0
M  END

$$$$
