No_3649-gen_results/8p0m/2024-11-27-11-27-31/
     RDKit          3D

 25 26  0  0  0  0  0  0  0  0999 V2000
  -28.0162   -0.8135   28.8779 C   0  0  0  0  0  0  0  0  0  0  0  0
  -28.4690   -0.7850   29.8287 C   0  0  0  0  0  0  0  0  0  0  0  0
  -26.5042   -0.7777   28.8766 C   0  0  0  0  0  0  0  0  0  0  0  0
  -25.8103   -0.8531   30.1028 C   0  0  0  0  0  0  0  0  0  0  0  0
  -27.9906   -0.8916   31.2257 C   0  0  0  0  0  0  0  0  0  0  0  0
  -26.6042   -0.8676   31.2652 C   0  0  0  0  0  0  0  0  0  0  0  0
  -29.9385   -0.8194   29.8358 O   0  0  0  0  0  0  0  0  0  0  0  0
  -30.6393    0.2340   30.2522 C   0  0  0  0  0  0  0  0  0  0  0  0
  -31.5896    0.5939   29.5426 C   0  0  0  0  0  0  0  0  0  0  0  0
  -32.3726    1.7688   29.9178 C   0  0  0  0  0  0  0  0  0  0  0  0
  -32.0096    2.4414   31.1089 C   0  0  0  0  0  0  0  0  0  0  0  0
  -30.9404    1.9620   31.8347 C   0  0  0  0  0  0  0  0  0  0  0  0
  -30.2105    0.9050   31.4622 C   0  0  0  0  0  0  0  0  0  0  0  0
  -25.5579   -0.7100   27.4422 Cl  0  0  0  0  0  0  0  0  0  0  0  0
  -32.9552    3.7674   31.5847 Cl  0  0  0  0  0  0  0  0  0  0  0  0
  -23.9677   -0.9221   30.2076 Br  0  0  0  0  0  0  0  0  0  0  0  0
  -31.9880   -0.0353   28.2839 C   0  0  0  0  0  0  0  0  0  0  0  0
  -32.8211   -0.8593   28.2911 O   0  0  0  0  0  0  0  0  0  0  0  0
  -31.2823    0.2225   27.2054 O   0  0  0  0  0  0  0  0  0  0  0  0
  -30.5636    2.6933   33.1463 C   0  0  0  0  0  0  0  0  0  0  0  0
  -29.6814    2.1892   33.8379 N   0  0  0  0  0  0  0  0  0  0  0  0
  -29.3512    2.6900   35.0654 C   0  0  0  0  0  0  0  0  0  0  0  0
  -28.2300    2.1244   35.8309 C   0  0  0  0  0  0  0  0  0  0  0  0
  -27.4909    1.1129   35.2419 C   0  0  0  0  0  0  0  0  0  0  0  0
  -27.7098    0.7665   33.9600 C   0  0  0  0  0  0  0  0  0  0  0  0
  2  7  1  0
  7  8  1  0
  3 14  1  0
 11 15  1  0
  4 16  1  0
  9 17  1  0
 17 18  1  0
 17 19  2  0
 12 20  1  0
 20 21  1  0
 21 22  2  3
 22 23  1  0
 23 24  2  3
 24 25  1  0
  8  9  2  0
  9 10  1  0
 10 11  2  0
 11 12  1  0
 12 13  2  0
 13  8  1  0
  1  2  2  0
  2  5  1  0
  5  6  2  0
  6  4  1  0
  4  3  2  0
  3  1  1  0
M  END

$$$$
