No_399-gen_results/8p0m/2024-11-27-11-27-31/
     RDKit          3D

 20 22  0  0  0  0  0  0  0  0999 V2000
  -28.0162   -0.8135   28.8779 C   0  0  0  0  0  0  0  0  0  0  0  0
  -27.0636   -0.1189   28.6079 C   0  0  0  0  0  0  0  0  0  0  0  0
  -26.9716    0.7139   27.5060 C   0  0  0  0  0  0  0  0  0  0  0  0
  -28.1053    0.7744   26.6421 C   0  0  0  0  0  0  0  0  0  0  0  0
  -29.2041    0.1179   27.0477 C   0  0  0  0  0  0  0  0  0  0  0  0
  -29.2127   -0.6088   28.1281 C   0  0  0  0  0  0  0  0  0  0  0  0
  -30.3709    0.2326   26.1381 C   0  0  0  0  0  0  0  0  0  0  0  0
  -30.3086    0.1051   24.9412 O   0  0  0  0  0  0  0  0  0  0  0  0
  -31.5786    0.2663   26.6747 O   0  0  0  0  0  0  0  0  0  0  0  0
  -25.6671    1.4055   27.1237 C   0  0  0  0  0  0  0  0  0  0  0  0
  -24.5337    1.0352   27.7283 C   0  0  0  0  0  0  0  0  0  0  0  0
  -23.4845    1.6626   27.9849 C   0  0  0  0  0  0  0  0  0  0  0  0
  -22.4169    1.1881   28.7883 C   0  0  0  0  0  0  0  0  0  0  0  0
  -22.5000   -0.0276   29.3869 C   0  0  0  0  0  0  0  0  0  0  0  0
  -23.6143   -0.7711   29.2475 C   0  0  0  0  0  0  0  0  0  0  0  0
  -24.6165   -0.3007   28.4574 C   0  0  0  0  0  0  0  0  0  0  0  0
  -25.7198   -0.5686   29.1629 C   0  0  0  0  0  0  0  0  0  0  0  0
  -25.8224   -1.8228   30.3050 Cl  0  0  0  0  0  0  0  0  0  0  0  0
  -25.6763    2.4625   26.1672 C   0  0  0  0  0  0  0  0  0  0  0  0
  -28.0835    1.6022   25.6266 O   0  0  0  0  0  0  0  0  0  0  0  0
  3  4  1  0
  4  5  1  0
  1  6  1  0
  5  6  1  0
  5  7  1  0
  7  8  2  0
  7  9  1  0
 17 18  1  0
 10 19  1  0
  4 20  2  0
  2  1  1  0
 11 12  1  0
 12 13  2  0
 13 14  1  0
 14 15  2  0
 15 16  1  0
  2  3  2  0
  3 10  1  0
 10 11  2  0
 11 16  1  0
 16 17  2  0
 17  2  1  0
M  END

$$$$
