No_3665-gen_results/8p0m/2024-11-27-11-27-31/
     RDKit          3D

 35 37  0  0  0  0  0  0  0  0999 V2000
  -28.0162   -0.8135   28.8779 C   0  0  0  0  0  0  0  0  0  0  0  0
  -27.0636   -0.1190   28.6079 C   0  0  0  0  0  0  0  0  0  0  0  0
  -27.0010    0.6913   27.4910 C   0  0  0  0  0  0  0  0  0  0  0  0
  -28.1373    0.7363   26.6350 C   0  0  0  0  0  0  0  0  0  0  0  0
  -29.2360    0.0765   27.0690 C   0  0  0  0  0  0  0  0  0  0  0  0
  -29.2177   -0.6429   28.1747 C   0  0  0  0  0  0  0  0  0  0  0  0
  -30.4152    0.1590   26.1820 C   0  0  0  0  0  0  0  0  0  0  0  0
  -31.0232    1.1188   26.0346 N   0  0  0  0  0  0  0  0  0  0  0  0
  -30.8241   -0.9325   25.6274 O   0  0  0  0  0  0  0  0  0  0  0  0
  -32.2346    1.2918   25.1677 C   0  0  0  0  0  0  0  0  0  0  0  0
  -28.0071   -1.6668   30.1455 C   0  0  0  0  0  0  0  0  0  0  0  0
  -28.6536   -1.7156   30.9584 O   0  0  0  0  0  0  0  0  0  0  0  0
  -26.7531   -2.3073   30.2286 O   0  0  0  0  0  0  0  0  0  0  0  0
  -25.6179   -1.7179   30.4072 C   0  0  0  0  0  0  0  0  0  0  0  0
  -24.6122   -2.3112   29.6895 C   0  0  0  0  0  0  0  0  0  0  0  0
  -23.3308   -1.6001   29.6190 C   0  0  0  0  0  0  0  0  0  0  0  0
  -23.1744   -0.3511   30.2412 C   0  0  0  0  0  0  0  0  0  0  0  0
  -25.3873   -0.4531   30.9641 C   0  0  0  0  0  0  0  0  0  0  0  0
  -26.4517    0.1152   31.8882 C   0  0  0  0  0  0  0  0  0  0  0  0
  -24.1511    0.1638   31.0499 C   0  0  0  0  0  0  0  0  0  0  0  0
  -26.0615   -0.0988   33.3441 C   0  0  0  0  0  0  0  0  0  0  0  0
  -26.7944    0.6577   34.1875 C   0  0  0  0  0  0  0  0  0  0  0  0
  -27.1564    0.4421   35.2985 C   0  0  0  0  0  0  0  0  0  0  0  0
  -27.9999    1.2682   36.1250 C   0  0  0  0  0  0  0  0  0  0  0  0
  -28.4154    2.4985   35.5831 C   0  0  0  0  0  0  0  0  0  0  0  0
  -27.3944    2.0403   33.7449 C   0  0  0  0  0  0  0  0  0  0  0  0
  -28.0792    2.8568   34.4196 C   0  0  0  0  0  0  0  0  0  0  0  0
  -24.6690   -3.5689   29.0232 C   0  0  0  0  0  0  0  0  0  0  0  0
  -25.7674    1.4664   27.0612 C   0  0  0  0  0  0  0  0  0  0  0  0
  -25.4555    2.6310   27.7350 C   0  0  0  0  0  0  0  0  0  0  0  0
  -24.9199    0.8938   26.1295 C   0  0  0  0  0  0  0  0  0  0  0  0
  -24.3308    3.0156   27.6249 F   0  0  0  0  0  0  0  0  0  0  0  0
  -26.3460    3.7371   27.3514 N   0  0  0  0  0  0  0  0  0  0  0  0
  -27.5049    4.0008   27.8549 C   0  0  0  0  0  0  0  0  0  0  0  0
  -28.3116    5.0104   27.1997 C   0  0  0  0  0  0  0  0  0  0  0  0
  5  7  1  0
  7  8  1  0
  7  9  2  0
  8 10  1  0
  1 11  1  0
 11 12  2  0
 11 13  1  0
 13 14  1  0
 18 19  1  0
 19 21  1  0
 21 22  1  0
 15 28  1  0
  3 29  1  0
 29 30  1  0
 29 31  1  0
 30 32  1  0
 30 33  1  0
 33 34  1  0
 34 35  2  0
  1  2  2  0
  2  3  1  0
  3  4  2  0
  4  5  1  0
  5  6  2  0
  6  1  1  0
 22 23  2  0
 23 24  1  0
 24 25  2  0
 25 27  1  0
 27 26  2  0
 26 22  1  0
 14 15  2  0
 15 16  1  0
 16 17  2  0
 17 20  1  0
 20 18  2  0
 18 14  1  0
M  END

$$$$
