No_334-gen_results/8p0m/2024-11-27-11-27-31/
     RDKit          3D

 22 23  0  0  0  0  0  0  0  0999 V2000
  -28.0162   -0.8135   28.8779 C   0  0  0  0  0  0  0  0  0  0  0  0
  -28.4690   -0.7850   29.8287 C   0  0  0  0  0  0  0  0  0  0  0  0
  -27.0871    0.2903   28.6377 C   0  0  0  0  0  0  0  0  0  0  0  0
  -26.9103    0.8486   27.4199 C   0  0  0  0  0  0  0  0  0  0  0  0
  -29.6069   -1.6266   30.1338 C   0  0  0  0  0  0  0  0  0  0  0  0
  -27.6424    1.1427   26.6727 C   0  0  0  0  0  0  0  0  0  0  0  0
  -27.3187    1.5649   25.2552 C   0  0  0  0  0  0  0  0  0  0  0  0
  -28.3120    1.8829   24.3396 C   0  0  0  0  0  0  0  0  0  0  0  0
  -28.0898    0.1684   31.0338 C   0  0  0  0  0  0  0  0  0  0  0  0
  -27.1872    1.0813   30.8854 C   0  0  0  0  0  0  0  0  0  0  0  0
  -26.6692    1.2191   29.6972 C   0  0  0  0  0  0  0  0  0  0  0  0
  -25.4320    0.6670   26.9389 C   0  0  0  0  0  0  0  0  0  0  0  0
  -25.0214    1.1195   25.6646 C   0  0  0  0  0  0  0  0  0  0  0  0
  -26.0218    1.4454   24.8056 C   0  0  0  0  0  0  0  0  0  0  0  0
  -30.5389   -1.6593   29.5738 O   0  0  0  0  0  0  0  0  0  0  0  0
  -29.5303   -2.3399   31.3781 N   0  0  0  0  0  0  0  0  0  0  0  0
  -29.8104   -3.4087   31.5944 C   0  0  0  0  0  0  0  0  0  0  0  0
  -29.6260    1.7717   24.7089 C   0  0  0  0  0  0  0  0  0  0  0  0
  -30.6508    2.2007   23.8336 C   0  0  0  0  0  0  0  0  0  0  0  0
  -31.9863    2.2628   24.1097 C   0  0  0  0  0  0  0  0  0  0  0  0
  -32.3877    1.7137   25.3446 C   0  0  0  0  0  0  0  0  0  0  0  0
  -31.4717    1.2437   26.2405 C   0  0  0  0  0  0  0  0  0  0  0  0
  3  4  1  0
  2  5  1  0
  5 15  2  0
  5 16  1  0
 16 17  1  0
  8 18  1  0
 18 19  2  3
 19 20  1  0
 20 21  2  3
 21 22  1  0
  8  7  1  0
  1  2  2  0
  2  9  1  0
  9 10  2  0
 10 11  1  0
 11  3  2  0
  3  1  1  0
  4  6  2  0
  6  7  1  0
  7 14  2  0
 14 13  1  0
 13 12  2  0
 12  4  1  0
M  END

$$$$
