No_3322-gen_results/8p0m/2024-11-27-11-27-31/
     RDKit          3D

 29 33  0  0  0  0  0  0  0  0999 V2000
  -28.0162   -0.8135   28.8779 C   0  0  0  0  0  0  0  0  0  0  0  0
  -27.0636   -0.1189   28.6079 C   0  0  0  0  0  0  0  0  0  0  0  0
  -25.7923   -0.4302   29.0761 C   0  0  0  0  0  0  0  0  0  0  0  0
  -24.5456    0.3494   28.8225 C   0  0  0  0  0  0  0  0  0  0  0  0
  -24.6586    1.4196   27.8878 C   0  0  0  0  0  0  0  0  0  0  0  0
  -25.9471    1.6811   27.3792 C   0  0  0  0  0  0  0  0  0  0  0  0
  -27.0439    0.9739   27.6871 C   0  0  0  0  0  0  0  0  0  0  0  0
  -27.9736   -1.7264   29.9612 N   0  0  0  0  0  0  0  0  0  0  0  0
  -29.2056   -0.3437   28.7182 O   0  0  0  0  0  0  0  0  0  0  0  0
  -29.0548   -2.5141   30.5112 C   0  0  0  0  0  0  0  0  0  0  0  0
  -23.4537    2.1668   27.6109 C   0  0  0  0  0  0  0  0  0  0  0  0
  -22.3164    1.8582   28.0676 O   0  0  0  0  0  0  0  0  0  0  0  0
  -23.5518    3.0442   26.6089 O   0  0  0  0  0  0  0  0  0  0  0  0
  -28.8488   -3.9135   30.4357 C   0  0  0  0  0  0  0  0  0  0  0  0
  -29.5168   -4.6365   31.3669 C   0  0  0  0  0  0  0  0  0  0  0  0
  -29.7156   -4.2247   32.4247 C   0  0  0  0  0  0  0  0  0  0  0  0
  -29.8085   -2.7759   32.7190 C   0  0  0  0  0  0  0  0  0  0  0  0
  -30.0281   -1.8277   30.9924 C   0  0  0  0  0  0  0  0  0  0  0  0
  -30.4736   -2.0215   33.7287 C   0  0  0  0  0  0  0  0  0  0  0  0
  -31.6417   -2.1839   33.9887 N   0  0  0  0  0  0  0  0  0  0  0  0
  -32.3771   -2.9560   33.9945 C   0  0  0  0  0  0  0  0  0  0  0  0
  -32.0544   -4.2002   33.8210 C   0  0  0  0  0  0  0  0  0  0  0  0
  -31.1994   -4.7313   32.6971 C   0  0  0  0  0  0  0  0  0  0  0  0
  -31.6234   -5.7476   31.9328 C   0  0  0  0  0  0  0  0  0  0  0  0
  -30.4646   -5.7143   30.9692 N   0  0  0  0  0  0  0  0  0  0  0  0
  -32.0936   -0.7033   34.5900 C   0  0  0  0  0  0  0  0  0  0  0  0
  -31.4190   -0.1963   35.4221 C   0  0  0  0  0  0  0  0  0  0  0  0
  -29.3748   -0.9572   34.0446 C   0  0  0  0  0  0  0  0  0  0  0  0
  -29.9179    0.0277   34.9881 C   0  0  0  0  0  0  0  0  0  0  0  0
  1  2  1  0
  1  8  1  0
  1  9  2  0
  8 10  1  0
  5 11  1  0
 11 12  2  0
 11 13  1  0
 17 19  1  0
 19 20  1  0
 20 21  1  0
 21 22  2  0
 16 23  1  0
 22 23  1  0
 23 24  1  0
 15 25  1  0
 24 25  1  0
 20 26  1  0
 26 27  1  0
 19 28  1  0
 27 29  1  0
 28 29  1  0
  2  3  2  0
  3  4  1  0
  4  5  2  0
  5  6  1  0
  6  7  2  0
  7  2  1  0
 10 14  2  0
 14 15  1  0
 15 16  2  0
 16 17  1  0
 17 18  2  0
 18 10  1  0
M  END

$$$$
