No_3635-gen_results/8p0m/2024-11-27-11-27-31/
     RDKit          3D

 14 14  0  0  0  0  0  0  0  0999 V2000
  -28.0162   -0.8135   28.8779 C   0  0  0  0  0  0  0  0  0  0  0  0
  -28.4690   -0.7850   29.8287 C   0  0  0  0  0  0  0  0  0  0  0  0
  -26.5042   -0.7777   28.8766 C   0  0  0  0  0  0  0  0  0  0  0  0
  -25.8103   -0.8531   30.1028 C   0  0  0  0  0  0  0  0  0  0  0  0
  -27.9906   -0.8916   31.2257 C   0  0  0  0  0  0  0  0  0  0  0  0
  -26.6042   -0.8676   31.2652 C   0  0  0  0  0  0  0  0  0  0  0  0
  -24.3894   -0.8049   30.1639 C   0  0  0  0  0  0  0  0  0  0  0  0
  -23.8446   -1.5191   29.3384 F   0  0  0  0  0  0  0  0  0  0  0  0
  -23.9425    0.4688   29.8548 F   0  0  0  0  0  0  0  0  0  0  0  0
  -23.9045   -1.0576   31.4139 F   0  0  0  0  0  0  0  0  0  0  0  0
  -30.0885   -0.7960   29.8278 C   0  0  0  0  0  0  0  0  0  0  0  0
  -30.5009   -0.3517   28.8652 O   0  0  0  0  0  0  0  0  0  0  0  0
  -30.8036   -1.2168   30.8787 N   0  0  0  0  0  0  0  0  0  0  0  0
  -32.2420   -1.1881   30.8232 C   0  0  0  0  0  0  0  0  0  0  0  0
  4  7  1  0
  7  8  1  0
  7  9  1  0
  7 10  1  0
  2 11  1  0
 11 12  2  0
 11 13  1  0
 13 14  1  0
  1  2  2  0
  2  5  1  0
  5  6  2  0
  6  4  1  0
  4  3  2  0
  3  1  1  0
M  END

$$$$
