No_3654-gen_results/8p0m/2024-11-27-11-27-31/
     RDKit          3D

  9  9  0  0  0  0  0  0  0  0999 V2000
  -28.0727   -1.2542   28.5316 F   0  0  0  0  0  0  0  0  0  0  0  0
  -27.3591   -0.3792   28.7224 C   0  0  0  0  0  0  0  0  0  0  0  0
  -26.3323   -0.6441   29.4520 C   0  0  0  0  0  0  0  0  0  0  0  0
  -25.2562    0.3203   29.7818 C   0  0  0  0  0  0  0  0  0  0  0  0
  -24.0409    0.1023   30.5300 C   0  0  0  0  0  0  0  0  0  0  0  0
  -23.9098   -1.2553   30.9858 C   0  0  0  0  0  0  0  0  0  0  0  0
  -24.8409   -2.1882   30.7121 C   0  0  0  0  0  0  0  0  0  0  0  0
  -25.9306   -1.9371   29.9563 C   0  0  0  0  0  0  0  0  0  0  0  0
  -27.9809    0.7118   29.3179 F   0  0  0  0  0  0  0  0  0  0  0  0
  1  2  1  0
  2  9  1  0
  2  3  1  0
  3  4  2  0
  4  5  1  0
  5  6  2  0
  6  7  1  0
  7  8  2  0
  8  3  1  0
M  END

$$$$
