No_3212-gen_results/8p0m/2024-11-27-11-27-31/
     RDKit          3D

 14 14  0  0  0  0  0  0  0  0999 V2000
  -28.0162   -0.8135   28.8779 C   0  0  0  0  0  0  0  0  0  0  0  0
  -27.0636   -0.1189   28.6079 C   0  0  0  0  0  0  0  0  0  0  0  0
  -25.7647   -0.3897   29.0360 C   0  0  0  0  0  0  0  0  0  0  0  0
  -24.5516    0.4058   28.7646 C   0  0  0  0  0  0  0  0  0  0  0  0
  -24.6957    1.4480   27.7988 C   0  0  0  0  0  0  0  0  0  0  0  0
  -25.9755    1.7250   27.3077 C   0  0  0  0  0  0  0  0  0  0  0  0
  -27.0718    1.0134   27.6535 C   0  0  0  0  0  0  0  0  0  0  0  0
  -29.2099   -0.0501   29.3493 C   0  0  0  0  0  0  0  0  0  0  0  0
  -29.3806   -0.0238   30.6582 N   0  0  0  0  0  0  0  0  0  0  0  0
  -23.4952    2.2102   27.5154 C   0  0  0  0  0  0  0  0  0  0  0  0
  -22.3037    1.7429   27.8423 N   0  0  0  0  0  0  0  0  0  0  0  0
  -23.5091    3.0014   26.4627 O   0  0  0  0  0  0  0  0  0  0  0  0
  -29.6573    0.6108   31.4084 C   0  0  0  0  0  0  0  0  0  0  0  0
  -29.7892    0.3720   32.8857 C   0  0  0  0  0  0  0  0  0  0  0  0
  1  2  2  3
  2  3  1  0
  3  4  1  0
  4  5  1  0
  5  6  1  0
  2  7  1  0
  6  7  1  0
  1  8  1  0
  8  9  1  0
  5 10  1  0
 10 11  1  0
 10 12  2  0
  9 13  1  0
 13 14  2  0
M  END

$$$$
