No_3139-gen_results/8p0m/2024-11-27-11-27-31/
     RDKit          3D

 21 23  0  0  0  0  0  0  0  0999 V2000
  -28.0162   -0.8135   28.8779 C   0  0  0  0  0  0  0  0  0  0  0  0
  -28.4690   -0.7850   29.8287 C   0  0  0  0  0  0  0  0  0  0  0  0
  -26.5455   -0.8762   28.8500 C   0  0  0  0  0  0  0  0  0  0  0  0
  -25.8041   -1.0324   30.0571 C   0  0  0  0  0  0  0  0  0  0  0  0
  -26.5373   -1.0386   31.2171 C   0  0  0  0  0  0  0  0  0  0  0  0
  -27.8843   -0.9532   31.1862 C   0  0  0  0  0  0  0  0  0  0  0  0
  -24.1391   -1.1177   30.0459 Cl  0  0  0  0  0  0  0  0  0  0  0  0
  -29.9280   -0.7105   29.9005 O   0  0  0  0  0  0  0  0  0  0  0  0
  -30.6810   -1.5473   30.3435 C   0  0  0  0  0  0  0  0  0  0  0  0
  -31.7039   -1.8283   29.5318 C   0  0  0  0  0  0  0  0  0  0  0  0
  -32.0432   -1.0467   28.5035 C   0  0  0  0  0  0  0  0  0  0  0  0
  -32.8089   -1.4708   27.4743 C   0  0  0  0  0  0  0  0  0  0  0  0
  -33.4186   -2.7922   27.5256 C   0  0  0  0  0  0  0  0  0  0  0  0
  -33.1120   -3.6171   28.5731 C   0  0  0  0  0  0  0  0  0  0  0  0
  -32.1821   -3.1933   29.5266 C   0  0  0  0  0  0  0  0  0  0  0  0
  -31.8209   -4.1519   30.5687 C   0  0  0  0  0  0  0  0  0  0  0  0
  -31.2256   -5.0178   30.5135 C   0  0  0  0  0  0  0  0  0  0  0  0
  -30.5717   -5.7926   31.1661 C   0  0  0  0  0  0  0  0  0  0  0  0
  -30.4775   -5.4833   32.6207 C   0  0  0  0  0  0  0  0  0  0  0  0
  -31.1645   -4.3388   32.9750 C   0  0  0  0  0  0  0  0  0  0  0  0
  -31.6906   -3.5360   32.0169 C   0  0  0  0  0  0  0  0  0  0  0  0
  4  7  1  0
  2  8  1  0
  8  9  1  0
 15 16  1  0
  9 10  1  0
  1  2  2  0
  2  6  1  0
  6  5  2  0
  5  4  1  0
  4  3  2  0
  3  1  1  0
 10 11  2  0
 11 12  1  0
 12 13  2  0
 13 14  1  0
 14 15  2  0
 15 10  1  0
 16 17  2  0
 17 18  1  0
 18 19  2  0
 19 20  1  0
 20 21  2  0
 21 16  1  0
M  END

$$$$
