No_3605-gen_results/8p0m/2024-11-27-11-27-31/
     RDKit          3D

 14 15  0  0  0  0  0  0  0  0999 V2000
  -28.0162   -0.8135   28.8779 C   0  0  0  0  0  0  0  0  0  0  0  0
  -28.4690   -0.7850   29.8287 C   0  0  0  0  0  0  0  0  0  0  0  0
  -26.5042   -0.7777   28.8766 C   0  0  0  0  0  0  0  0  0  0  0  0
  -25.8103   -0.8531   30.1028 C   0  0  0  0  0  0  0  0  0  0  0  0
  -27.9906   -0.8916   31.2257 C   0  0  0  0  0  0  0  0  0  0  0  0
  -26.6042   -0.8676   31.2652 C   0  0  0  0  0  0  0  0  0  0  0  0
  -30.0739   -0.8360   29.8615 C   0  0  0  0  0  0  0  0  0  0  0  0
  -30.6891   -1.6554   30.2229 O   0  0  0  0  0  0  0  0  0  0  0  0
  -30.6139    0.2846   29.2227 N   0  0  0  0  0  0  0  0  0  0  0  0
  -32.0200    0.3382   29.0215 C   0  0  0  0  0  0  0  0  0  0  0  0
  -29.8434    1.4262   28.7504 C   0  0  0  0  0  0  0  0  0  0  0  0
  -30.0266    2.0167   27.9025 C   0  0  0  0  0  0  0  0  0  0  0  0
  -32.3490    1.2027   27.8851 C   0  0  0  0  0  0  0  0  0  0  0  0
  -31.4223    2.1778   27.4225 C   0  0  0  0  0  0  0  0  0  0  0  0
  2  7  1  0
  7  8  2  0
  7  9  1  0
  9 10  1  0
  9 11  1  0
 12 14  1  0
 13 14  1  0
 10 13  1  0
 12 11  1  0
  1  2  2  0
  2  5  1  0
  5  6  2  0
  6  4  1  0
  4  3  2  0
  3  1  1  0
M  END

$$$$
