No_3507-gen_results/8p0m/2024-11-27-11-27-31/
     RDKit          3D

 11 11  0  0  0  0  0  0  0  0999 V2000
  -28.0162   -0.8135   28.8779 C   0  0  0  0  0  0  0  0  0  0  0  0
  -27.0636   -0.1190   28.6079 C   0  0  0  0  0  0  0  0  0  0  0  0
  -26.9716    0.7139   27.5060 C   0  0  0  0  0  0  0  0  0  0  0  0
  -25.8205    1.4909   27.1160 C   0  0  0  0  0  0  0  0  0  0  0  0
  -24.6562    1.4242   27.9180 C   0  0  0  0  0  0  0  0  0  0  0  0
  -23.4598    2.1165   27.6160 C   0  0  0  0  0  0  0  0  0  0  0  0
  -23.5068    2.7076   26.2939 C   0  0  0  0  0  0  0  0  0  0  0  0
  -25.7733   -0.1954   29.4398 C   0  0  0  0  0  0  0  0  0  0  0  0
  -24.6392    0.5412   29.1339 C   0  0  0  0  0  0  0  0  0  0  0  0
  -29.1966   -0.0570   29.3805 C   0  0  0  0  0  0  0  0  0  0  0  0
  -30.3046   -0.7739   29.7146 N   0  0  0  0  0  0  0  0  0  0  0  0
  1  2  2  3
  2  3  1  0
  3  4  1  0
  4  5  1  0
  5  6  2  3
  6  7  1  0
  2  8  1  0
  5  9  1  0
  8  9  1  0
  1 10  1  0
 10 11  1  0
M  END

$$$$
