No_3261-gen_results/8p0m/2024-11-27-11-27-31/
     RDKit          3D

 30 32  0  0  0  0  0  0  0  0999 V2000
  -28.0162   -0.8135   28.8779 C   0  0  0  0  0  0  0  0  0  0  0  0
  -27.0636   -0.1189   28.6079 C   0  0  0  0  0  0  0  0  0  0  0  0
  -27.0425    0.2440   27.4277 F   0  0  0  0  0  0  0  0  0  0  0  0
  -29.2139   -0.2463   28.7638 O   0  0  0  0  0  0  0  0  0  0  0  0
  -25.7661    0.0705   29.3036 C   0  0  0  0  0  0  0  0  0  0  0  0
  -24.6237    0.4517   28.7167 C   0  0  0  0  0  0  0  0  0  0  0  0
  -23.3368    0.4201   29.3057 C   0  0  0  0  0  0  0  0  0  0  0  0
  -22.1825    0.8796   28.6509 C   0  0  0  0  0  0  0  0  0  0  0  0
  -22.3633    1.5631   27.3841 C   0  0  0  0  0  0  0  0  0  0  0  0
  -23.6283    1.7764   26.8781 C   0  0  0  0  0  0  0  0  0  0  0  0
  -24.6950    1.2515   27.5009 C   0  0  0  0  0  0  0  0  0  0  0  0
  -27.9294   -1.8435   29.8158 N   0  0  0  0  0  0  0  0  0  0  0  0
  -26.7476   -2.4921   30.1817 C   0  0  0  0  0  0  0  0  0  0  0  0
  -29.1319   -2.5508   30.2742 C   0  0  0  0  0  0  0  0  0  0  0  0
  -29.1232   -2.7983   31.7090 C   0  0  0  0  0  0  0  0  0  0  0  0
  -29.9053   -3.6820   32.2140 C   0  0  0  0  0  0  0  0  0  0  0  0
  -29.9680   -4.7984   31.7854 O   0  0  0  0  0  0  0  0  0  0  0  0
  -29.3295   -1.3670   32.2192 N   0  0  0  0  0  0  0  0  0  0  0  0
  -29.4177   -1.2130   33.5059 C   0  0  0  0  0  0  0  0  0  0  0  0
  -30.3279   -2.1826   34.1308 C   0  0  0  0  0  0  0  0  0  0  0  0
  -29.8800   -3.5766   33.8552 C   0  0  0  0  0  0  0  0  0  0  0  0
  -30.7038   -4.5846   34.3594 O   0  0  0  0  0  0  0  0  0  0  0  0
  -30.1987   -1.9751   35.5940 O   0  0  0  0  0  0  0  0  0  0  0  0
  -23.0929   -0.3071   30.5290 C   0  0  0  0  0  0  0  0  0  0  0  0
  -23.8781    0.0144   31.6710 C   0  0  0  0  0  0  0  0  0  0  0  0
  -24.0391   -0.9134   32.6838 C   0  0  0  0  0  0  0  0  0  0  0  0
  -24.3311    1.3566   31.7985 C   0  0  0  0  0  0  0  0  0  0  0  0
  -25.1708    1.6690   32.9539 C   0  0  0  0  0  0  0  0  0  0  0  0
  -24.8802   -0.5983   33.7731 C   0  0  0  0  0  0  0  0  0  0  0  0
  -25.4617    0.7074   33.8764 C   0  0  0  0  0  0  0  0  0  0  0  0
  1  2  1  0
  2  3  1  0
  1  4  1  0
  2  5  1  0
  1 12  1  0
 12 13  1  0
 12 14  1  0
 14 15  1  0
 15 16  1  0
 16 17  2  0
 15 18  1  0
 18 19  1  0
 19 20  1  0
 16 21  1  0
 20 21  1  0
 21 22  1  0
 20 23  1  0
  7 24  1  0
 24 25  1  0
  5  6  1  0
  6  7  1  0
  7  8  2  0
  8  9  1  0
  9 10  2  0
 10 11  1  0
 11  6  2  0
 25 26  2  0
 26 29  1  0
 29 30  2  0
 30 28  1  0
 28 27  2  0
 27 25  1  0
M  END

$$$$
