No_3372-gen_results/8p0m/2024-11-27-11-27-31/
     RDKit          3D

 13 14  0  0  0  0  0  0  0  0999 V2000
  -28.0162   -0.8135   28.8779 C   0  0  0  0  0  0  0  0  0  0  0  0
  -27.0636   -0.1189   28.6079 C   0  0  0  0  0  0  0  0  0  0  0  0
  -27.0010    0.6913   27.4910 C   0  0  0  0  0  0  0  0  0  0  0  0
  -28.1373    0.7363   26.6350 C   0  0  0  0  0  0  0  0  0  0  0  0
  -29.2360    0.0765   27.0690 C   0  0  0  0  0  0  0  0  0  0  0  0
  -29.2177   -0.6429   28.1747 C   0  0  0  0  0  0  0  0  0  0  0  0
  -30.3134    0.1603   26.2891 F   0  0  0  0  0  0  0  0  0  0  0  0
  -25.7101   -0.1791   29.3956 C   0  0  0  0  0  0  0  0  0  0  0  0
  -25.2964   -1.0161   29.9426 C   0  0  0  0  0  0  0  0  0  0  0  0
  -24.0274   -1.0896   30.6916 C   0  0  0  0  0  0  0  0  0  0  0  0
  -23.2248   -0.1906   30.4821 C   0  0  0  0  0  0  0  0  0  0  0  0
  -23.5179    0.9476   29.7029 C   0  0  0  0  0  0  0  0  0  0  0  0
  -24.8271    0.9975   29.0635 C   0  0  0  0  0  0  0  0  0  0  0  0
  5  7  1  0
  2  8  1  0
  1  2  2  0
  2  3  1  0
  3  4  2  0
  4  5  1  0
  5  6  2  0
  6  1  1  0
  8  9  2  0
  9 10  1  0
 10 11  2  0
 11 12  1  0
 12 13  2  0
 13  8  1  0
M  END

$$$$
