No_3763-gen_results/8p0m/2024-11-27-11-27-31/
     RDKit          3D

 18 19  0  0  0  0  0  0  0  0999 V2000
  -28.0162   -0.8135   28.8779 C   0  0  0  0  0  0  0  0  0  0  0  0
  -28.4690   -0.7850   29.8287 C   0  0  0  0  0  0  0  0  0  0  0  0
  -27.1356    0.2359   28.5352 C   0  0  0  0  0  0  0  0  0  0  0  0
  -26.3351    0.2900   27.2835 C   0  0  0  0  0  0  0  0  0  0  0  0
  -29.3807   -1.9134   30.3549 C   0  0  0  0  0  0  0  0  0  0  0  0
  -28.2295    0.3010   30.9036 C   0  0  0  0  0  0  0  0  0  0  0  0
  -25.3800    1.2740   27.0672 C   0  0  0  0  0  0  0  0  0  0  0  0
  -27.4150    1.3108   30.6139 C   0  0  0  0  0  0  0  0  0  0  0  0
  -26.7451    1.3177   29.4039 C   0  0  0  0  0  0  0  0  0  0  0  0
  -25.1639    2.3202   27.9821 C   0  0  0  0  0  0  0  0  0  0  0  0
  -25.8103    2.3449   29.1044 C   0  0  0  0  0  0  0  0  0  0  0  0
  -29.7988   -1.8809   31.5376 O   0  0  0  0  0  0  0  0  0  0  0  0
  -29.5581   -2.8653   29.6513 O   0  0  0  0  0  0  0  0  0  0  0  0
  -24.1233    3.3289   27.5356 C   0  0  0  0  0  0  0  0  0  0  0  0
  -23.3939    3.0937   26.5704 F   0  0  0  0  0  0  0  0  0  0  0  0
  -23.2257    3.6949   28.4175 F   0  0  0  0  0  0  0  0  0  0  0  0
  -24.7899    4.5647   27.4135 F   0  0  0  0  0  0  0  0  0  0  0  0
  -25.6082    3.3204   30.0673 O   0  0  0  0  0  0  0  0  0  0  0  0
  3  4  1  0
  2  5  1  0
  7 10  1  0
  9 11  1  0
 10 11  1  0
  5 12  1  0
  5 13  2  0
 10 14  1  0
 14 15  1  0
 14 16  1  0
 14 17  1  0
 11 18  2  0
  4  7  1  0
  1  2  2  0
  2  6  1  0
  6  8  2  0
  8  9  1  0
  9  3  2  0
  3  1  1  0
M  END

$$$$
