No_3503-gen_results/8p0m/2024-11-27-11-27-31/
     RDKit          3D

 16 17  0  0  0  0  0  0  0  0999 V2000
  -28.0162   -0.8135   28.8779 C   0  0  0  0  0  0  0  0  0  0  0  0
  -28.4690   -0.7850   29.8287 C   0  0  0  0  0  0  0  0  0  0  0  0
  -26.5455   -0.8762   28.8500 C   0  0  0  0  0  0  0  0  0  0  0  0
  -25.6825   -0.7773   27.6829 C   0  0  0  0  0  0  0  0  0  0  0  0
  -28.0261   -0.9156   30.9273 C   0  0  0  0  0  0  0  0  0  0  0  0
  -26.6223   -0.9928   31.2166 C   0  0  0  0  0  0  0  0  0  0  0  0
  -25.8198   -0.9885   30.1081 C   0  0  0  0  0  0  0  0  0  0  0  0
  -25.1878    0.5655   27.3385 C   0  0  0  0  0  0  0  0  0  0  0  0
  -23.9572    0.8566   27.8049 C   0  0  0  0  0  0  0  0  0  0  0  0
  -23.3754    2.1214   27.4308 C   0  0  0  0  0  0  0  0  0  0  0  0
  -24.0012    2.9534   26.5541 C   0  0  0  0  0  0  0  0  0  0  0  0
  -25.8115    1.3775   26.3959 C   0  0  0  0  0  0  0  0  0  0  0  0
  -25.2254    2.5356   26.0001 C   0  0  0  0  0  0  0  0  0  0  0  0
  -24.4194   -1.1270   30.2375 C   0  0  0  0  0  0  0  0  0  0  0  0
  -23.7389   -2.1285   29.6063 C   0  0  0  0  0  0  0  0  0  0  0  0
  -23.7794   -0.2621   31.1995 C   0  0  0  0  0  0  0  0  0  0  0  0
  3  4  1  0
  4  8  1  0
  7 14  1  0
 14 15  1  0
 14 16  1  0
  1  2  2  0
  2  5  1  0
  5  6  2  0
  6  7  1  0
  7  3  2  0
  3  1  1  0
  8  9  2  0
  9 10  1  0
 10 11  2  0
 11 13  1  0
 13 12  2  0
 12  8  1  0
M  END

$$$$
