No_375-gen_results/8p0m/2024-11-27-11-27-31/
     RDKit          3D

 17 19  0  0  0  0  0  0  0  0999 V2000
  -28.0162   -0.8135   28.8779 C   0  0  0  0  0  0  0  0  0  0  0  0
  -27.0636   -0.1189   28.6079 C   0  0  0  0  0  0  0  0  0  0  0  0
  -26.8756    1.1325   28.9134 C   0  0  0  0  0  0  0  0  0  0  0  0
  -25.6883    1.9515   28.5672 C   0  0  0  0  0  0  0  0  0  0  0  0
  -24.6394    1.2834   27.8753 C   0  0  0  0  0  0  0  0  0  0  0  0
  -24.8068   -0.0513   27.6040 C   0  0  0  0  0  0  0  0  0  0  0  0
  -25.9019   -0.7670   27.9511 C   0  0  0  0  0  0  0  0  0  0  0  0
  -29.2125   -0.1153   29.1222 C   0  0  0  0  0  0  0  0  0  0  0  0
  -30.3508   -0.8179   29.5782 C   0  0  0  0  0  0  0  0  0  0  0  0
  -23.4184    1.9805   27.5117 C   0  0  0  0  0  0  0  0  0  0  0  0
  -23.2878    2.7098   26.6762 O   0  0  0  0  0  0  0  0  0  0  0  0
  -22.2382    1.5167   28.2260 N   0  0  0  0  0  0  0  0  0  0  0  0
  -31.5913   -0.5819   29.0462 C   0  0  0  0  0  0  0  0  0  0  0  0
  -31.7883    0.6308   28.3585 C   0  0  0  0  0  0  0  0  0  0  0  0
  -30.6951    1.3824   27.9770 C   0  0  0  0  0  0  0  0  0  0  0  0
  -29.4280    0.9397   28.2883 C   0  0  0  0  0  0  0  0  0  0  0  0
  -28.3477    1.7856   28.0232 N   0  0  0  0  0  0  0  0  0  0  0  0
  5 10  1  0
 10 11  2  0
 10 12  1  0
  3  4  1  0
  4  5  2  0
  5  6  1  0
  6  7  2  0
  7  2  1  0
  8  9  2  0
  9 13  1  0
 13 14  2  0
 14 15  1  0
 15 16  2  0
  1  2  2  0
  2  3  1  0
  3 17  2  0
 17 16  1  0
 16  8  1  0
  8  1  1  0
M  END

$$$$
