No_394-gen_results/8p0m/2024-11-27-11-27-31/
     RDKit          3D

 23 25  0  0  0  0  0  0  0  0999 V2000
  -28.0162   -0.8135   28.8779 C   0  0  0  0  0  0  0  0  0  0  0  0
  -27.0636   -0.1190   28.6079 C   0  0  0  0  0  0  0  0  0  0  0  0
  -26.9716    0.7139   27.5060 C   0  0  0  0  0  0  0  0  0  0  0  0
  -28.1053    0.7744   26.6421 C   0  0  0  0  0  0  0  0  0  0  0  0
  -29.2041    0.1179   27.0477 C   0  0  0  0  0  0  0  0  0  0  0  0
  -29.2127   -0.6088   28.1281 C   0  0  0  0  0  0  0  0  0  0  0  0
  -25.7106    1.4518   27.1380 C   0  0  0  0  0  0  0  0  0  0  0  0
  -25.2074    2.4128   27.9320 C   0  0  0  0  0  0  0  0  0  0  0  0
  -23.9232    3.0327   27.5992 C   0  0  0  0  0  0  0  0  0  0  0  0
  -23.2537    2.5225   26.4549 C   0  0  0  0  0  0  0  0  0  0  0  0
  -24.8528    0.9891   26.0822 C   0  0  0  0  0  0  0  0  0  0  0  0
  -23.7240    1.5578   25.7176 C   0  0  0  0  0  0  0  0  0  0  0  0
  -25.9050    3.0058   29.0713 C   0  0  0  0  0  0  0  0  0  0  0  0
  -26.2172    3.6356   29.8715 C   0  0  0  0  0  0  0  0  0  0  0  0
  -26.8743    4.2513   30.9100 C   0  0  0  0  0  0  0  0  0  0  0  0
  -27.9837    3.8315   31.4433 N   0  0  0  0  0  0  0  0  0  0  0  0
  -28.5799    2.8038   31.2938 C   0  0  0  0  0  0  0  0  0  0  0  0
  -29.7297    2.5732   31.1893 C   0  0  0  0  0  0  0  0  0  0  0  0
  -30.3247    1.3024   31.1357 C   0  0  0  0  0  0  0  0  0  0  0  0
  -31.5718    1.1304   30.6432 C   0  0  0  0  0  0  0  0  0  0  0  0
  -32.3561    2.2358   30.3025 C   0  0  0  0  0  0  0  0  0  0  0  0
  -31.8410    3.4923   30.3061 C   0  0  0  0  0  0  0  0  0  0  0  0
  -30.5158    3.6793   30.6261 C   0  0  0  0  0  0  0  0  0  0  0  0
  3  7  1  0
  8 13  1  0
 13 14  3  0
 14 15  1  0
 15 16  1  0
 16 17  1  0
 17 18  1  0
  7  8  1  0
  8  9  2  0
  9 10  1  0
 10 12  2  0
 12 11  1  0
 11  7  2  0
  1  2  2  0
  2  3  1  0
  3  4  2  0
  4  5  1  0
  5  6  2  0
  6  1  1  0
 18 19  2  0
 19 20  1  0
 20 21  2  0
 21 22  1  0
 22 23  2  0
 23 18  1  0
M  END

$$$$
