No_3348-gen_results/8p0m/2024-11-27-11-27-31/
     RDKit          3D

 20 22  0  0  0  0  0  0  0  0999 V2000
  -28.0162   -0.8135   28.8779 C   0  0  0  0  0  0  0  0  0  0  0  0
  -28.4690   -0.7850   29.8287 C   0  0  0  0  0  0  0  0  0  0  0  0
  -28.1816    0.4277   28.1134 C   0  0  0  0  0  0  0  0  0  0  0  0
  -28.9841    1.4155   28.5154 C   0  0  0  0  0  0  0  0  0  0  0  0
  -29.3802    0.1384   30.4612 C   0  0  0  0  0  0  0  0  0  0  0  0
  -29.5415    1.2736   29.7242 C   0  0  0  0  0  0  0  0  0  0  0  0
  -27.4586    0.4934   26.7701 C   0  0  0  0  0  0  0  0  0  0  0  0
  -27.9200    0.7178   25.7507 C   0  0  0  0  0  0  0  0  0  0  0  0
  -29.3533    0.9361   25.6644 C   0  0  0  0  0  0  0  0  0  0  0  0
  -29.8677    1.1044   24.2799 C   0  0  0  0  0  0  0  0  0  0  0  0
  -28.9653    1.1417   23.2756 C   0  0  0  0  0  0  0  0  0  0  0  0
  -27.2666    0.7083   24.4925 C   0  0  0  0  0  0  0  0  0  0  0  0
  -27.7045    0.9704   23.3525 C   0  0  0  0  0  0  0  0  0  0  0  0
  -26.1698    0.0728   26.9904 F   0  0  0  0  0  0  0  0  0  0  0  0
  -31.2736    1.4570   24.1345 C   0  0  0  0  0  0  0  0  0  0  0  0
  -32.1496    1.0268   24.8609 C   0  0  0  0  0  0  0  0  0  0  0  0
  -33.5743    1.3570   24.7400 C   0  0  0  0  0  0  0  0  0  0  0  0
  -33.8648    2.2201   23.6752 C   0  0  0  0  0  0  0  0  0  0  0  0
  -32.9221    2.7592   22.8091 C   0  0  0  0  0  0  0  0  0  0  0  0
  -31.5852    2.4148   23.0258 C   0  0  0  0  0  0  0  0  0  0  0  0
  3  7  1  0
  7 14  1  0
 10 15  1  0
  7  8  1  0
 15 16  2  0
 16 17  1  0
 17 18  2  0
 18 19  1  0
 19 20  2  0
 20 15  1  0
  1  2  2  0
  2  5  1  0
  5  6  2  0
  6  4  1  0
  4  3  2  0
  3  1  1  0
  8  9  2  0
  9 10  1  0
 10 11  2  0
 11 13  1  0
 13 12  2  0
 12  8  1  0
M  END

$$$$
