No_3032-gen_results/8p0m/2024-11-27-11-27-31/
     RDKit          3D

 13 13  0  0  0  0  0  0  0  0999 V2000
  -28.0162   -0.8135   28.8779 C   0  0  0  0  0  0  0  0  0  0  0  0
  -27.0636   -0.1189   28.6079 C   0  0  0  0  0  0  0  0  0  0  0  0
  -25.8837   -0.5253   28.7835 F   0  0  0  0  0  0  0  0  0  0  0  0
  -27.1010    1.1562   27.8909 C   0  0  0  0  0  0  0  0  0  0  0  0
  -29.3448   -0.1953   28.7972 C   0  0  0  0  0  0  0  0  0  0  0  0
  -28.3754    1.6882   27.6893 C   0  0  0  0  0  0  0  0  0  0  0  0
  -29.4687    0.9858   28.1266 C   0  0  0  0  0  0  0  0  0  0  0  0
  -30.8044    1.5615   27.9022 C   0  0  0  0  0  0  0  0  0  0  0  0
  -31.7062    1.4447   28.7605 C   0  0  0  0  0  0  0  0  0  0  0  0
  -32.6922    1.7539   29.0395 C   0  0  0  0  0  0  0  0  0  0  0  0
  -33.6212    1.3604   30.1497 C   0  0  0  0  0  0  0  0  0  0  0  0
  -33.0613    0.3757   30.9575 C   0  0  0  0  0  0  0  0  0  0  0  0
  -31.8858   -0.1613   30.7507 C   0  0  0  0  0  0  0  0  0  0  0  0
  2  3  1  0
  7  8  1  0
  8  9  2  3
  9 10  1  0
 10 11  2  3
 11 12  1  0
 12 13  2  0
  1  2  2  0
  2  4  1  0
  4  6  2  0
  6  7  1  0
  7  5  2  0
  5  1  1  0
M  END

$$$$
