No_3211-gen_results/8p0m/2024-11-27-11-27-31/
     RDKit          3D

 13 14  0  0  0  0  0  0  0  0999 V2000
  -28.0162   -0.8135   28.8779 C   0  0  0  0  0  0  0  0  0  0  0  0
  -28.4690   -0.7850   29.8287 C   0  0  0  0  0  0  0  0  0  0  0  0
  -28.1960    0.3478   28.0550 C   0  0  0  0  0  0  0  0  0  0  0  0
  -29.0191    1.3501   28.3782 C   0  0  0  0  0  0  0  0  0  0  0  0
  -29.4107    0.1803   30.3782 C   0  0  0  0  0  0  0  0  0  0  0  0
  -29.6059    1.2495   29.6193 C   0  0  0  0  0  0  0  0  0  0  0  0
  -27.3467    0.3759   26.5145 Cl  0  0  0  0  0  0  0  0  0  0  0  0
  -30.0268   -0.0284   31.7609 C   0  0  0  0  0  0  0  0  0  0  0  0
  -29.9889    0.9520   32.5726 C   0  0  0  0  0  0  0  0  0  0  0  0
  -30.7976    0.9084   33.8069 C   0  0  0  0  0  0  0  0  0  0  0  0
  -31.4607   -0.2892   34.0653 C   0  0  0  0  0  0  0  0  0  0  0  0
  -31.4180   -1.3264   33.2030 C   0  0  0  0  0  0  0  0  0  0  0  0
  -30.6931   -1.2506   31.9670 C   0  0  0  0  0  0  0  0  0  0  0  0
  3  7  1  0
  5  8  1  0
  8  9  2  0
  9 10  1  0
 10 11  2  0
 11 12  1  0
 12 13  2  0
 13  8  1  0
  1  2  2  0
  2  5  1  0
  5  6  2  0
  6  4  1  0
  4  3  2  0
  3  1  1  0
M  END

$$$$
