No_3698-gen_results/8p0m/2024-11-27-11-27-31/
     RDKit          3D

 28 29  0  0  0  0  0  0  0  0999 V2000
  -28.1229   -1.3353   28.4874 O   0  0  0  0  0  0  0  0  0  0  0  0
  -27.4806   -0.4044   28.7094 C   0  0  0  0  0  0  0  0  0  0  0  0
  -26.3804   -0.0867   27.9394 C   0  0  0  0  0  0  0  0  0  0  0  0
  -27.4232    0.1749   30.0549 N   0  0  0  0  0  0  0  0  0  0  0  0
  -25.4065    0.7421   28.2860 C   0  0  0  0  0  0  0  0  0  0  0  0
  -25.5431    1.4795   29.5328 C   0  0  0  0  0  0  0  0  0  0  0  0
  -26.5322    1.0821   30.4010 C   0  0  0  0  0  0  0  0  0  0  0  0
  -24.3099    1.2191   27.4062 C   0  0  0  0  0  0  0  0  0  0  0  0
  -23.0420    1.4256   27.9556 C   0  0  0  0  0  0  0  0  0  0  0  0
  -22.1087    0.7158   28.2339 C   0  0  0  0  0  0  0  0  0  0  0  0
  -22.2761   -0.5404   28.8595 C   0  0  0  0  0  0  0  0  0  0  0  0
  -24.5077    1.3292   26.0143 C   0  0  0  0  0  0  0  0  0  0  0  0
  -22.8474   -0.6200   29.9570 C   0  0  0  0  0  0  0  0  0  0  0  0
  -23.3258   -1.9159   30.5164 C   0  0  0  0  0  0  0  0  0  0  0  0
  -24.0975   -2.5629   29.5794 C   0  0  0  0  0  0  0  0  0  0  0  0
  -25.3412   -3.1864   29.8993 C   0  0  0  0  0  0  0  0  0  0  0  0
  -25.9845   -4.0710   29.0438 C   0  0  0  0  0  0  0  0  0  0  0  0
  -25.7519   -5.2312   29.5698 C   0  0  0  0  0  0  0  0  0  0  0  0
  -28.5651   -0.2620   30.8950 C   0  0  0  0  0  0  0  0  0  0  0  0
  -26.5961    1.7061   31.7877 C   0  0  0  0  0  0  0  0  0  0  0  0
  -20.7811    1.1420   28.1442 N   0  0  0  0  0  0  0  0  0  0  0  0
  -28.3397   -0.0882   32.1651 C   0  0  0  0  0  0  0  0  0  0  0  0
  -27.7226    1.2039   32.6977 C   0  0  0  0  0  0  0  0  0  0  0  0
  -22.8624    2.8684   28.0175 O   0  0  0  0  0  0  0  0  0  0  0  0
  -25.7511    2.7246   32.2432 C   0  0  0  0  0  0  0  0  0  0  0  0
  -25.9382    2.9752   33.4469 F   0  0  0  0  0  0  0  0  0  0  0  0
  -25.9359    3.8091   31.4444 F   0  0  0  0  0  0  0  0  0  0  0  0
  -24.4218    2.2911   32.1037 F   0  0  0  0  0  0  0  0  0  0  0  0
  1  2  2  0
  2  3  1  0
  2  4  1  0
  3  5  1  0
  4  7  1  0
  6  7  1  0
  5  8  1  0
  8  9  1  0
  9 10  1  0
 10 11  1  0
  8 12  1  0
 11 13  2  3
 13 14  1  0
 14 15  1  0
 15 16  2  3
 16 17  1  0
 17 18  1  0
  4 19  1  0
  7 20  1  0
 10 21  1  0
 20 23  1  0
 22 23  1  0
  9 24  2  0
 20 25  1  0
 25 26  1  0
 25 27  1  0
 25 28  1  0
 22 19  1  0
  5  6  1  0
M  END

$$$$
