No_3432-gen_results/8p0m/2024-11-27-11-27-31/
     RDKit          3D

 15 16  0  0  0  0  0  0  0  0999 V2000
  -28.0544   -1.0498   28.7246 N   0  0  0  0  0  0  0  0  0  0  0  0
  -27.7460   -0.0733   29.0098 C   0  0  0  0  0  0  0  0  0  0  0  0
  -27.5562    0.3369   30.3393 C   0  0  0  0  0  0  0  0  0  0  0  0
  -27.8558   -0.5867   31.3709 C   0  0  0  0  0  0  0  0  0  0  0  0
  -28.2477   -1.8503   30.9650 C   0  0  0  0  0  0  0  0  0  0  0  0
  -28.3271   -2.1308   29.6397 C   0  0  0  0  0  0  0  0  0  0  0  0
  -27.4192    0.8770   28.0606 N   0  0  0  0  0  0  0  0  0  0  0  0
  -26.5674    1.5538   27.8987 C   0  0  0  0  0  0  0  0  0  0  0  0
  -25.5451    1.6733   28.7342 C   0  0  0  0  0  0  0  0  0  0  0  0
  -25.0869    2.9712   29.0122 C   0  0  0  0  0  0  0  0  0  0  0  0
  -25.0197    3.8950   27.9839 C   0  0  0  0  0  0  0  0  0  0  0  0
  -25.8868    3.7203   26.8764 C   0  0  0  0  0  0  0  0  0  0  0  0
  -26.7103    2.6318   26.8951 C   0  0  0  0  0  0  0  0  0  0  0  0
  -28.6547    0.9711   27.2056 C   0  0  0  0  0  0  0  0  0  0  0  0
  -28.5414    1.3739   25.9730 C   0  0  0  0  0  0  0  0  0  0  0  0
  2  7  1  0
  7  8  1  0
  7 14  1  0
 14 15  2  0
  1  2  2  0
  2  3  1  0
  3  4  2  0
  4  5  1  0
  5  6  2  0
  6  1  1  0
  8  9  2  0
  9 10  1  0
 10 11  2  0
 11 12  1  0
 12 13  2  0
 13  8  1  0
M  END

$$$$
