No_3666-gen_results/8p0m/2024-11-27-11-27-31/
     RDKit          3D

 17 18  0  0  0  0  0  0  0  0999 V2000
  -28.0162   -0.8135   28.8779 C   0  0  0  0  0  0  0  0  0  0  0  0
  -27.0636   -0.1190   28.6079 C   0  0  0  0  0  0  0  0  0  0  0  0
  -27.0010    0.6913   27.4910 C   0  0  0  0  0  0  0  0  0  0  0  0
  -25.8548    1.4825   27.0830 C   0  0  0  0  0  0  0  0  0  0  0  0
  -25.8227    2.3296   25.9941 C   0  0  0  0  0  0  0  0  0  0  0  0
  -27.9874   -1.6326   30.1036 C   0  0  0  0  0  0  0  0  0  0  0  0
  -26.7767   -1.8328   30.7473 C   0  0  0  0  0  0  0  0  0  0  0  0
  -25.6300   -1.2164   30.3057 C   0  0  0  0  0  0  0  0  0  0  0  0
  -25.7324   -0.3480   29.1642 C   0  0  0  0  0  0  0  0  0  0  0  0
  -26.9473    2.3496   25.1604 C   0  0  0  0  0  0  0  0  0  0  0  0
  -28.0269    1.5715   25.3671 C   0  0  0  0  0  0  0  0  0  0  0  0
  -28.0603    0.7622   26.4991 C   0  0  0  0  0  0  0  0  0  0  0  0
  -29.3615   -2.4797   30.6519 Cl  0  0  0  0  0  0  0  0  0  0  0  0
  -29.1538    1.6563   24.4735 C   0  0  0  0  0  0  0  0  0  0  0  0
  -29.3282    0.6066   23.9207 F   0  0  0  0  0  0  0  0  0  0  0  0
  -30.2712    1.9806   25.2019 F   0  0  0  0  0  0  0  0  0  0  0  0
  -29.2743    2.5590   23.6133 F   0  0  0  0  0  0  0  0  0  0  0  0
  6 13  1  0
 11 14  1  0
 14 15  1  0
 14 16  1  0
 14 17  1  0
  2  3  1  0
  3  4  2  0
  4  5  1  0
  5 10  2  0
 10 11  1  0
 11 12  2  0
 12  3  1  0
  1  2  2  0
  2  9  1  0
  9  8  2  0
  8  7  1  0
  7  6  2  0
  6  1  1  0
M  END

$$$$
