No_34-gen_results/8p0m/2024-11-27-11-27-31/
     RDKit          3D

 20 23  0  0  0  0  0  0  0  0999 V2000
  -28.0162   -0.8135   28.8779 C   0  0  0  0  0  0  0  0  0  0  0  0
  -27.0636   -0.1190   28.6079 C   0  0  0  0  0  0  0  0  0  0  0  0
  -26.8756    1.1325   28.9134 C   0  0  0  0  0  0  0  0  0  0  0  0
  -25.6883    1.9515   28.5672 C   0  0  0  0  0  0  0  0  0  0  0  0
  -24.6394    1.2834   27.8753 C   0  0  0  0  0  0  0  0  0  0  0  0
  -24.8068   -0.0513   27.6040 C   0  0  0  0  0  0  0  0  0  0  0  0
  -25.9019   -0.7670   27.9511 C   0  0  0  0  0  0  0  0  0  0  0  0
  -28.6455   -0.5282   30.2428 C   0  0  0  0  0  0  0  0  0  0  0  0
  -28.9122    0.7961   30.4353 C   0  0  0  0  0  0  0  0  0  0  0  0
  -27.6754    1.6491   30.0989 C   0  0  0  0  0  0  0  0  0  0  0  0
  -23.4710    1.9726   27.3666 C   0  0  0  0  0  0  0  0  0  0  0  0
  -22.3323    1.7255   27.7888 O   0  0  0  0  0  0  0  0  0  0  0  0
  -23.6947    3.1650   26.8133 O   0  0  0  0  0  0  0  0  0  0  0  0
  -27.5881    3.0351   30.5196 C   0  0  0  0  0  0  0  0  0  0  0  0
  -28.4079    3.4956   31.3838 C   0  0  0  0  0  0  0  0  0  0  0  0
  -28.2625    4.8456   31.8669 C   0  0  0  0  0  0  0  0  0  0  0  0
  -27.6158    5.5765   31.5051 C   0  0  0  0  0  0  0  0  0  0  0  0
  -26.5358    5.2426   30.4842 C   0  0  0  0  0  0  0  0  0  0  0  0
  -26.5784    3.9017   30.0258 C   0  0  0  0  0  0  0  0  0  0  0  0
  -25.6006    3.3662   29.0381 C   0  0  0  0  0  0  0  0  0  0  0  0
  3  4  1  0
  4  5  1  0
  5  6  1  0
  2  7  1  0
  6  7  1  0
  5 11  1  0
 11 12  2  0
 11 13  1  0
 10 14  1  0
  4 20  1  0
 19 20  1  0
  1  2  2  0
  2  3  1  0
  3 10  2  0
 10  9  1  0
  9  8  2  0
  8  1  1  0
 14 15  2  0
 15 16  1  0
 16 17  2  0
 17 18  1  0
 18 19  2  0
 19 14  1  0
M  END

$$$$
