No_3564-gen_results/8p0m/2024-11-27-11-27-31/
     RDKit          3D

 31 33  0  0  0  0  0  0  0  0999 V2000
  -28.0162   -0.8135   28.8779 C   0  0  0  0  0  0  0  0  0  0  0  0
  -28.4690   -0.7850   29.8287 C   0  0  0  0  0  0  0  0  0  0  0  0
  -27.1356    0.2359   28.5352 C   0  0  0  0  0  0  0  0  0  0  0  0
  -26.8745    1.2825   29.3982 C   0  0  0  0  0  0  0  0  0  0  0  0
  -27.5070    1.2380   30.6295 C   0  0  0  0  0  0  0  0  0  0  0  0
  -28.3269    0.1637   30.9240 C   0  0  0  0  0  0  0  0  0  0  0  0
  -26.4110    0.3070   27.2192 C   0  0  0  0  0  0  0  0  0  0  0  0
  -26.8745    0.8940   26.2226 C   0  0  0  0  0  0  0  0  0  0  0  0
  -28.1129    1.5868   26.3029 C   0  0  0  0  0  0  0  0  0  0  0  0
  -28.6636    2.0819   25.0458 C   0  0  0  0  0  0  0  0  0  0  0  0
  -29.8506    2.8060   25.0555 C   0  0  0  0  0  0  0  0  0  0  0  0
  -30.4236    3.2091   26.2660 C   0  0  0  0  0  0  0  0  0  0  0  0
  -29.8200    2.8052   27.4395 C   0  0  0  0  0  0  0  0  0  0  0  0
  -28.7124    2.1029   27.4661 C   0  0  0  0  0  0  0  0  0  0  0  0
  -25.1822   -0.4625   27.2830 C   0  0  0  0  0  0  0  0  0  0  0  0
  -24.1875   -0.1702   28.3234 C   0  0  0  0  0  0  0  0  0  0  0  0
  -23.4305    0.9423   28.1991 C   0  0  0  0  0  0  0  0  0  0  0  0
  -22.3671    1.1071   29.1462 C   0  0  0  0  0  0  0  0  0  0  0  0
  -24.0353   -1.0667   29.3972 C   0  0  0  0  0  0  0  0  0  0  0  0
  -23.0192   -0.8253   30.3449 C   0  0  0  0  0  0  0  0  0  0  0  0
  -22.1912    0.3271   30.2091 C   0  0  0  0  0  0  0  0  0  0  0  0
  -26.2938    0.7578   25.0008 N   0  0  0  0  0  0  0  0  0  0  0  0
  -27.2142    2.2991   31.6744 C   0  0  0  0  0  0  0  0  0  0  0  0
  -26.3001    3.0451   31.9318 Cl  0  0  0  0  0  0  0  0  0  0  0  0
  -28.5565    2.5857   32.4658 C   0  0  0  0  0  0  0  0  0  0  0  0
  -30.4862    3.2751   28.7318 C   0  0  0  0  0  0  0  0  0  0  0  0
  -31.6179    3.8996   28.8205 C   0  0  0  0  0  0  0  0  0  0  0  0
  -29.4220    1.9576   32.7285 C   0  0  0  0  0  0  0  0  0  0  0  0
  -30.4915    2.2571   33.6372 C   0  0  0  0  0  0  0  0  0  0  0  0
  -30.3806    3.5797   34.1185 C   0  0  0  0  0  0  0  0  0  0  0  0
  -29.4098    4.4247   33.8191 C   0  0  0  0  0  0  0  0  0  0  0  0
  3  7  1  0
  7  8  2  3
  8  9  1  0
  7 15  1  0
 15 16  1  0
  8 22  1  0
  5 23  1  0
 23 24  1  0
 23 25  1  0
 13 26  1  0
 26 27  2  0
 25 28  2  3
 28 29  1  0
 29 30  2  3
 30 31  1  0
  1  2  2  0
  2  6  1  0
  6  5  2  0
  5  4  1  0
  4  3  2  0
  3  1  1  0
 16 17  2  0
 17 18  1  0
 18 21  2  0
 21 20  1  0
 20 19  2  0
 19 16  1  0
  9 10  2  0
 10 11  1  0
 11 12  2  0
 12 13  1  0
 13 14  2  0
 14  9  1  0
M  END

$$$$
