No_3750-gen_results/8p0m/2024-11-27-11-27-31/
     RDKit          3D

 21 22  0  0  0  0  0  0  0  0999 V2000
  -28.0162   -0.8135   28.8779 C   0  0  0  0  0  0  0  0  0  0  0  0
  -28.4690   -0.7850   29.8287 C   0  0  0  0  0  0  0  0  0  0  0  0
  -28.1816    0.4277   28.1134 C   0  0  0  0  0  0  0  0  0  0  0  0
  -27.4498    0.6435   26.8500 C   0  0  0  0  0  0  0  0  0  0  0  0
  -27.8596    1.4573   25.9076 C   0  0  0  0  0  0  0  0  0  0  0  0
  -29.4263    0.1097   30.4178 C   0  0  0  0  0  0  0  0  0  0  0  0
  -29.6233    1.2198   29.7351 C   0  0  0  0  0  0  0  0  0  0  0  0
  -28.9609    1.4529   28.5513 C   0  0  0  0  0  0  0  0  0  0  0  0
  -27.1843    1.5820   24.6996 C   0  0  0  0  0  0  0  0  0  0  0  0
  -26.1000    0.7426   24.4149 C   0  0  0  0  0  0  0  0  0  0  0  0
  -25.6591   -0.1235   25.3867 C   0  0  0  0  0  0  0  0  0  0  0  0
  -26.2924   -0.2106   26.5790 C   0  0  0  0  0  0  0  0  0  0  0  0
  -30.6781    2.4680   30.3297 Cl  0  0  0  0  0  0  0  0  0  0  0  0
  -28.2950   -2.1317   30.7344 C   0  0  0  0  0  0  0  0  0  0  0  0
  -27.7583   -2.2922   31.5852 O   0  0  0  0  0  0  0  0  0  0  0  0
  -29.0044   -3.1502   30.0825 O   0  0  0  0  0  0  0  0  0  0  0  0
  -28.6587   -4.3667   30.6492 C   0  0  0  0  0  0  0  0  0  0  0  0
  -29.7992   -5.3313   30.4420 C   0  0  0  0  0  0  0  0  0  0  0  0
  -30.6537   -4.9922   29.4149 C   0  0  0  0  0  0  0  0  0  0  0  0
  -31.7238   -4.8645   29.7401 O   0  0  0  0  0  0  0  0  0  0  0  0
  -30.3064   -5.1069   28.1772 O   0  0  0  0  0  0  0  0  0  0  0  0
  3  4  1  0
  7 13  1  0
  2 14  1  0
 14 15  2  0
 14 16  1  0
 16 17  1  0
 17 18  1  0
 18 19  1  0
 19 20  2  0
 19 21  1  0
  4  5  2  0
  5  9  1  0
  9 10  2  0
 10 11  1  0
 11 12  2  0
 12  4  1  0
  1  2  2  0
  2  6  1  0
  6  7  2  0
  7  8  1  0
  8  3  2  0
  3  1  1  0
M  END

$$$$
