No_3734-gen_results/8p0m/2024-11-27-11-27-31/
     RDKit          3D

 27 30  0  0  0  0  0  0  0  0999 V2000
  -28.0162   -0.8135   28.8779 C   0  0  0  0  0  0  0  0  0  0  0  0
  -28.4690   -0.7850   29.8287 C   0  0  0  0  0  0  0  0  0  0  0  0
  -26.5042   -0.7777   28.8766 C   0  0  0  0  0  0  0  0  0  0  0  0
  -25.8103   -0.8531   30.1028 C   0  0  0  0  0  0  0  0  0  0  0  0
  -27.9906   -0.8916   31.2257 C   0  0  0  0  0  0  0  0  0  0  0  0
  -26.6042   -0.8676   31.2652 C   0  0  0  0  0  0  0  0  0  0  0  0
  -24.3894   -0.8049   30.1638 C   0  0  0  0  0  0  0  0  0  0  0  0
  -23.7660   -0.9500   31.0679 C   0  0  0  0  0  0  0  0  0  0  0  0
  -22.2665   -0.8379   31.2250 C   0  0  0  0  0  0  0  0  0  0  0  0
  -21.6700   -0.5264   30.0648 C   0  0  0  0  0  0  0  0  0  0  0  0
  -23.7317   -0.4993   28.8620 C   0  0  0  0  0  0  0  0  0  0  0  0
  -22.3671   -0.3419   28.8755 C   0  0  0  0  0  0  0  0  0  0  0  0
  -30.0901   -0.7844   29.8465 C   0  0  0  0  0  0  0  0  0  0  0  0
  -30.5768   -0.1675   28.9100 N   0  0  0  0  0  0  0  0  0  0  0  0
  -31.6566   -0.6212   28.1580 C   0  0  0  0  0  0  0  0  0  0  0  0
  -32.0008   -0.0343   26.9119 C   0  0  0  0  0  0  0  0  0  0  0  0
  -32.4799   -0.6188   26.0072 C   0  0  0  0  0  0  0  0  0  0  0  0
  -33.0050   -2.0269   26.1101 C   0  0  0  0  0  0  0  0  0  0  0  0
  -32.6657   -2.6501   27.3280 C   0  0  0  0  0  0  0  0  0  0  0  0
  -31.8618   -1.9987   28.2669 C   0  0  0  0  0  0  0  0  0  0  0  0
  -30.7510   -1.3172   30.7396 O   0  0  0  0  0  0  0  0  0  0  0  0
  -33.0531   -4.0889   27.4058 C   0  0  0  0  0  0  0  0  0  0  0  0
  -33.6520   -4.4170   28.4353 C   0  0  0  0  0  0  0  0  0  0  0  0
  -34.0104   -5.8112   28.6637 C   0  0  0  0  0  0  0  0  0  0  0  0
  -33.6309   -6.7161   27.6656 C   0  0  0  0  0  0  0  0  0  0  0  0
  -32.9222   -6.3291   26.5529 C   0  0  0  0  0  0  0  0  0  0  0  0
  -32.5595   -4.9737   26.4405 C   0  0  0  0  0  0  0  0  0  0  0  0
  4  7  1  0
  2 13  1  0
 13 14  1  0
 14 15  1  0
 13 21  2  0
 19 22  1  0
  7  8  2  0
  8  9  1  0
  9 10  2  0
 10 12  1  0
 12 11  2  0
 11  7  1  0
 22 23  2  0
 23 24  1  0
 24 25  2  0
 25 26  1  0
 26 27  2  0
 27 22  1  0
 15 16  2  0
 16 17  1  0
 17 18  2  0
 18 19  1  0
 19 20  2  0
 20 15  1  0
  1  2  2  0
  2  5  1  0
  5  6  2  0
  6  4  1  0
  4  3  2  0
  3  1  1  0
M  END

$$$$
