No_3289-gen_results/8p0m/2024-11-27-11-27-31/
     RDKit          3D

 23 25  0  0  0  0  0  0  0  0999 V2000
  -28.1493   -0.8198   28.9079 Cl  0  0  0  0  0  0  0  0  0  0  0  0
  -27.8339    0.4961   29.0598 C   0  0  0  0  0  0  0  0  0  0  0  0
  -27.5135    1.2383   28.0485 C   0  0  0  0  0  0  0  0  0  0  0  0
  -27.0548    2.6251   28.1330 C   0  0  0  0  0  0  0  0  0  0  0  0
  -26.9438    3.1838   29.4305 C   0  0  0  0  0  0  0  0  0  0  0  0
  -27.2205    2.3582   30.5116 C   0  0  0  0  0  0  0  0  0  0  0  0
  -27.5987    1.0586   30.3700 C   0  0  0  0  0  0  0  0  0  0  0  0
  -26.4856    4.5602   29.5942 C   0  0  0  0  0  0  0  0  0  0  0  0
  -25.8716    5.1677   28.6239 C   0  0  0  0  0  0  0  0  0  0  0  0
  -25.9314    4.5685   27.2481 C   0  0  0  0  0  0  0  0  0  0  0  0
  -26.4004    3.3412   27.0948 C   0  0  0  0  0  0  0  0  0  0  0  0
  -25.2780    6.8174   28.6827 Cl  0  0  0  0  0  0  0  0  0  0  0  0
  -27.5429    0.7856   26.8089 F   0  0  0  0  0  0  0  0  0  0  0  0
  -26.3553    5.0857   30.8001 F   0  0  0  0  0  0  0  0  0  0  0  0
  -28.0066    0.2830   31.6253 C   0  0  0  0  0  0  0  0  0  0  0  0
  -27.1385   -0.4890   32.0865 N   0  0  0  0  0  0  0  0  0  0  0  0
  -29.2540    0.4964   32.1469 C   0  0  0  0  0  0  0  0  0  0  0  0
  -30.0280    1.3762   32.0601 C   0  0  0  0  0  0  0  0  0  0  0  0
  -29.6535    2.6769   31.8056 C   0  0  0  0  0  0  0  0  0  0  0  0
  -30.6411    3.8249   31.7609 C   0  0  0  0  0  0  0  0  0  0  0  0
  -31.8958    3.4762   31.7912 C   0  0  0  0  0  0  0  0  0  0  0  0
  -32.3371    2.1909   32.0436 C   0  0  0  0  0  0  0  0  0  0  0  0
  -31.4454    1.2176   32.1770 C   0  0  0  0  0  0  0  0  0  0  0  0
  1  2  1  0
  9 12  1  0
  3 13  1  0
  8 14  1  0
  7 15  1  0
 15 16  1  0
 15 17  1  0
 17 18  1  0
 18 19  2  0
 19 20  1  0
 20 21  2  0
 21 22  1  0
 22 23  2  0
 23 18  1  0
  2  3  2  0
  3  4  1  0
  5  6  1  0
  6  7  2  0
  7  2  1  0
  4  5  2  0
  5  8  1  0
  8  9  2  0
  9 10  1  0
 10 11  2  0
 11  4  1  0
M  END

$$$$
