No_3178-gen_results/8p0m/2024-11-27-11-27-31/
     RDKit          3D

 29 32  0  0  0  0  0  0  0  0999 V2000
  -28.0162   -0.8135   28.8779 C   0  0  0  0  0  0  0  0  0  0  0  0
  -28.4690   -0.7850   29.8287 C   0  0  0  0  0  0  0  0  0  0  0  0
  -27.0871    0.2903   28.6377 C   0  0  0  0  0  0  0  0  0  0  0  0
  -26.0239    0.3644   29.2526 C   0  0  0  0  0  0  0  0  0  0  0  0
  -26.2460    0.4334   30.7986 C   0  0  0  0  0  0  0  0  0  0  0  0
  -28.1805   -0.0692   30.9083 C   0  0  0  0  0  0  0  0  0  0  0  0
  -26.7641    0.1674   31.8487 N   0  0  0  0  0  0  0  0  0  0  0  0
  -24.8558    1.0096   31.3861 C   0  0  0  0  0  0  0  0  0  0  0  0
  -26.6969    0.2089   33.0141 C   0  0  0  0  0  0  0  0  0  0  0  0
  -23.8172    1.0676   30.4299 C   0  0  0  0  0  0  0  0  0  0  0  0
  -24.6199    0.8815   29.1975 C   0  0  0  0  0  0  0  0  0  0  0  0
  -23.9193    0.8910   27.8807 C   0  0  0  0  0  0  0  0  0  0  0  0
  -24.4377    1.6212   26.8401 C   0  0  0  0  0  0  0  0  0  0  0  0
  -23.6978    1.6219   25.5968 C   0  0  0  0  0  0  0  0  0  0  0  0
  -25.3814    2.6173   26.9876 C   0  0  0  0  0  0  0  0  0  0  0  0
  -25.3367    3.6093   27.6972 C   0  0  0  0  0  0  0  0  0  0  0  0
  -26.3366    4.6632   27.8641 C   0  0  0  0  0  0  0  0  0  0  0  0
  -27.4623    4.4688   27.1396 C   0  0  0  0  0  0  0  0  0  0  0  0
  -26.6485    2.5531   26.2571 C   0  0  0  0  0  0  0  0  0  0  0  0
  -27.6296    3.4634   26.3085 C   0  0  0  0  0  0  0  0  0  0  0  0
  -27.4431    0.7801   33.9054 C   0  0  0  0  0  0  0  0  0  0  0  0
  -25.6065   -0.7014   33.6753 C   0  0  0  0  0  0  0  0  0  0  0  0
  -27.3715    0.7602   35.3220 C   0  0  0  0  0  0  0  0  0  0  0  0
  -25.4477   -0.7159   35.0728 C   0  0  0  0  0  0  0  0  0  0  0  0
  -26.3066   -0.0307   35.9222 C   0  0  0  0  0  0  0  0  0  0  0  0
  -29.7587   -1.4665   30.0758 C   0  0  0  0  0  0  0  0  0  0  0  0
  -30.6111   -1.2532   29.3609 F   0  0  0  0  0  0  0  0  0  0  0  0
  -30.1832   -1.3590   31.4113 F   0  0  0  0  0  0  0  0  0  0  0  0
  -29.4171   -2.8467   30.0539 F   0  0  0  0  0  0  0  0  0  0  0  0
  1  2  1  0
  1  3  1  0
  3  4  1  0
  4  5  1  0
  2  6  2  0
  5  7  1  0
  6  7  1  0
  5  8  1  0
  7  9  1  0
  8 10  2  0
  4 11  1  0
 10 11  1  0
 11 12  1  0
 12 13  2  3
 13 14  1  0
 13 15  1  0
  2 26  1  0
 26 27  1  0
 26 28  1  0
 26 29  1  0
 15 16  2  0
 16 17  1  0
 17 18  2  0
 18 20  1  0
 20 19  2  0
 19 15  1  0
  9 21  2  0
 21 23  1  0
 23 25  2  0
 25 24  1  0
 24 22  2  0
 22  9  1  0
M  END

$$$$
