No_300-gen_results/8p0m/2024-11-27-11-27-31/
     RDKit          3D

 22 25  0  0  0  0  0  0  0  0999 V2000
  -28.0162   -0.8135   28.8779 C   0  0  0  0  0  0  0  0  0  0  0  0
  -28.4690   -0.7850   29.8287 C   0  0  0  0  0  0  0  0  0  0  0  0
  -26.5455   -0.8762   28.8500 C   0  0  0  0  0  0  0  0  0  0  0  0
  -25.8041   -1.0324   30.0571 C   0  0  0  0  0  0  0  0  0  0  0  0
  -27.9437   -0.9869   31.2075 C   0  0  0  0  0  0  0  0  0  0  0  0
  -26.5825   -1.0386   31.2231 C   0  0  0  0  0  0  0  0  0  0  0  0
  -30.0279   -0.6588   29.6965 C   0  0  0  0  0  0  0  0  0  0  0  0
  -30.8399   -1.4373   30.1917 N   0  0  0  0  0  0  0  0  0  0  0  0
  -30.5077    0.4357   28.9358 C   0  0  0  0  0  0  0  0  0  0  0  0
  -29.7066    1.4354   28.3703 C   0  0  0  0  0  0  0  0  0  0  0  0
  -30.3414    2.4257   27.5701 C   0  0  0  0  0  0  0  0  0  0  0  0
  -31.7226    2.3278   27.3679 C   0  0  0  0  0  0  0  0  0  0  0  0
  -32.4196    1.3192   27.8905 C   0  0  0  0  0  0  0  0  0  0  0  0
  -31.8797    0.3520   28.6611 C   0  0  0  0  0  0  0  0  0  0  0  0
  -30.3785   -2.4692   31.0529 C   0  0  0  0  0  0  0  0  0  0  0  0
  -31.4587   -3.4063   31.4732 C   0  0  0  0  0  0  0  0  0  0  0  0
  -31.0839   -4.4720   32.0351 C   0  0  0  0  0  0  0  0  0  0  0  0
  -29.6809   -4.8367   32.3720 C   0  0  0  0  0  0  0  0  0  0  0  0
  -28.7289   -4.0093   31.8305 C   0  0  0  0  0  0  0  0  0  0  0  0
  -29.0648   -2.8667   31.1666 C   0  0  0  0  0  0  0  0  0  0  0  0
  -28.0482   -2.0014   31.1591 N   0  0  0  0  0  0  0  0  0  0  0  0
  -26.8493   -2.9242   31.1105 C   0  0  0  0  0  0  0  0  0  0  0  0
  2  7  1  0
  7  8  2  0
  7  9  1  0
  8 15  1  0
  5 21  1  0
 20 21  1  0
 21 22  1  0
  9 10  2  0
 10 11  1  0
 11 12  2  0
 12 13  1  0
 13 14  2  0
 14  9  1  0
 15 16  2  0
 16 17  1  0
 17 18  2  0
 18 19  1  0
 19 20  2  0
 20 15  1  0
  1  2  2  0
  2  5  1  0
  5  6  2  0
  6  4  1  0
  4  3  2  0
  3  1  1  0
M  END

$$$$
