No_4993-gen_results/8p0m/2024-11-27-11-27-31/
     RDKit          3D

 21 23  0  0  0  0  0  0  0  0999 V2000
  -28.0162   -0.8135   28.8779 C   0  0  0  0  0  0  0  0  0  0  0  0
  -27.0636   -0.1189   28.6079 C   0  0  0  0  0  0  0  0  0  0  0  0
  -27.0010    0.6913   27.4910 C   0  0  0  0  0  0  0  0  0  0  0  0
  -27.1778    1.9037   27.5632 C   0  0  0  0  0  0  0  0  0  0  0  0
  -28.0594   -1.3960   30.2136 C   0  0  0  0  0  0  0  0  0  0  0  0
  -26.8947   -1.6080   30.9179 C   0  0  0  0  0  0  0  0  0  0  0  0
  -25.7839   -0.2253   29.3757 C   0  0  0  0  0  0  0  0  0  0  0  0
  -25.7520   -0.9581   30.5315 C   0  0  0  0  0  0  0  0  0  0  0  0
  -27.3396    2.5314   28.8850 C   0  0  0  0  0  0  0  0  0  0  0  0
  -27.0723    2.0337   29.9506 C   0  0  0  0  0  0  0  0  0  0  0  0
  -27.8293    2.5299   31.0767 C   0  0  0  0  0  0  0  0  0  0  0  0
  -28.3844    3.8237   31.0472 C   0  0  0  0  0  0  0  0  0  0  0  0
  -28.5629    4.4253   29.8168 C   0  0  0  0  0  0  0  0  0  0  0  0
  -28.1025    3.8210   28.6681 C   0  0  0  0  0  0  0  0  0  0  0  0
  -29.3372   -2.1703   30.6227 C   0  0  0  0  0  0  0  0  0  0  0  0
  -29.4573   -3.3599   30.5646 O   0  0  0  0  0  0  0  0  0  0  0  0
  -30.3246   -1.4339   30.9594 O   0  0  0  0  0  0  0  0  0  0  0  0
  -26.7777   -0.0178   26.2119 C   0  0  0  0  0  0  0  0  0  0  0  0
  -26.9699    0.6269   24.9418 C   0  0  0  0  0  0  0  0  0  0  0  0
  -27.0908    2.0256   25.0381 C   0  0  0  0  0  0  0  0  0  0  0  0
  -27.2176    2.7546   26.2811 C   0  0  0  0  0  0  0  0  0  0  0  0
  2  3  1  0
  4  9  1  0
  5 15  1  0
 15 16  1  0
 15 17  2  0
  3  4  2  0
  4 21  1  0
 21 20  2  0
 20 19  1  0
 19 18  2  0
 18  3  1  0
  1  2  2  0
  2  7  1  0
  7  8  2  0
  8  6  1  0
  6  5  2  0
  5  1  1  0
  9 10  2  0
 10 11  1  0
 11 12  2  0
 12 13  1  0
 13 14  2  0
 14  9  1  0
M  END

$$$$
