No_4236-gen_results/8p0m/2024-11-27-11-27-31/
     RDKit          3D

 23 24  0  0  0  0  0  0  0  0999 V2000
  -28.0162   -0.8135   28.8779 C   0  0  0  0  0  0  0  0  0  0  0  0
  -27.0636   -0.1190   28.6079 C   0  0  0  0  0  0  0  0  0  0  0  0
  -27.0010    0.6913   27.4910 C   0  0  0  0  0  0  0  0  0  0  0  0
  -25.8548    1.4825   27.0830 C   0  0  0  0  0  0  0  0  0  0  0  0
  -24.6901    1.4526   27.8807 C   0  0  0  0  0  0  0  0  0  0  0  0
  -24.7379    0.6010   29.0416 C   0  0  0  0  0  0  0  0  0  0  0  0
  -25.8234   -0.1688   29.3887 C   0  0  0  0  0  0  0  0  0  0  0  0
  -29.2150   -0.1726   29.0132 N   0  0  0  0  0  0  0  0  0  0  0  0
  -29.6839    0.2429   30.1438 C   0  0  0  0  0  0  0  0  0  0  0  0
  -29.1319    0.4205   31.1001 C   0  0  0  0  0  0  0  0  0  0  0  0
  -29.2073    0.8632   32.1754 C   0  0  0  0  0  0  0  0  0  0  0  0
  -28.6226    1.3837   33.0145 C   0  0  0  0  0  0  0  0  0  0  0  0
  -27.1040    1.1904   33.0259 C   0  0  0  0  0  0  0  0  0  0  0  0
  -26.1973    1.7437   33.8704 C   0  0  0  0  0  0  0  0  0  0  0  0
  -26.7427    2.5848   34.7939 C   0  0  0  0  0  0  0  0  0  0  0  0
  -28.0154    2.8807   34.9726 C   0  0  0  0  0  0  0  0  0  0  0  0
  -28.9125    2.2783   34.0672 C   0  0  0  0  0  0  0  0  0  0  0  0
  -30.9657    0.9159   29.8940 C   0  0  0  0  0  0  0  0  0  0  0  0
  -23.4942    2.1732   27.5627 C   0  0  0  0  0  0  0  0  0  0  0  0
  -22.6203    1.6878   27.1152 O   0  0  0  0  0  0  0  0  0  0  0  0
  -23.6653    3.5052   27.6757 O   0  0  0  0  0  0  0  0  0  0  0  0
  -31.6999    0.9104   28.9708 N   0  0  0  0  0  0  0  0  0  0  0  0
  -31.5118    1.5153   31.0679 N   0  0  0  0  0  0  0  0  0  0  0  0
  1  2  1  0
  1  8  1  0
  8  9  1  0
  9 10  2  3
 10 11  1  0
  9 18  1  0
  5 19  1  0
 19 20  2  0
 19 21  1  0
 18 22  1  0
 18 23  2  0
 11 12  1  0
 12 13  2  0
 13 14  1  0
 14 15  2  0
 15 16  1  0
 16 17  2  0
 17 12  1  0
  2  3  2  0
  3  4  1  0
  4  5  2  0
  5  6  1  0
  6  7  2  0
  7  2  1  0
M  END

$$$$
