No_4005-gen_results/8p0m/2024-11-27-11-27-31/
     RDKit          3D

 24 26  0  0  0  0  0  0  0  0999 V2000
  -28.0162   -0.8135   28.8779 C   0  0  0  0  0  0  0  0  0  0  0  0
  -28.4690   -0.7850   29.8287 C   0  0  0  0  0  0  0  0  0  0  0  0
  -26.5455   -0.8762   28.8500 C   0  0  0  0  0  0  0  0  0  0  0  0
  -25.8974   -0.8267   29.8894 C   0  0  0  0  0  0  0  0  0  0  0  0
  -27.9129   -0.8385   31.1942 C   0  0  0  0  0  0  0  0  0  0  0  0
  -26.5519   -0.8324   31.1775 C   0  0  0  0  0  0  0  0  0  0  0  0
  -29.9348   -0.7809   29.9077 O   0  0  0  0  0  0  0  0  0  0  0  0
  -24.3838   -0.8552   29.9390 C   0  0  0  0  0  0  0  0  0  0  0  0
  -23.7526    0.4756   30.1298 C   0  0  0  0  0  0  0  0  0  0  0  0
  -23.2614    1.1445   29.0014 C   0  0  0  0  0  0  0  0  0  0  0  0
  -23.9251    2.2188   28.3553 C   0  0  0  0  0  0  0  0  0  0  0  0
  -23.5783    2.5135   27.0330 C   0  0  0  0  0  0  0  0  0  0  0  0
  -22.4160    1.8990   26.4626 C   0  0  0  0  0  0  0  0  0  0  0  0
  -22.1880    0.6169   28.1873 C   0  0  0  0  0  0  0  0  0  0  0  0
  -21.7545    0.9992   27.1055 C   0  0  0  0  0  0  0  0  0  0  0  0
  -25.1504    2.8129   28.9145 C   0  0  0  0  0  0  0  0  0  0  0  0
  -25.4519    2.7828   30.0549 O   0  0  0  0  0  0  0  0  0  0  0  0
  -25.8385    3.5836   28.1263 O   0  0  0  0  0  0  0  0  0  0  0  0
  -30.6198   -0.2062   28.9975 C   0  0  0  0  0  0  0  0  0  0  0  0
  -30.1896    0.7888   28.3064 C   0  0  0  0  0  0  0  0  0  0  0  0
  -31.1018    1.4929   27.4771 C   0  0  0  0  0  0  0  0  0  0  0  0
  -32.3694    1.0144   27.3137 C   0  0  0  0  0  0  0  0  0  0  0  0
  -31.9621   -0.5690   28.8871 C   0  0  0  0  0  0  0  0  0  0  0  0
  -32.8051   -0.0197   28.0455 C   0  0  0  0  0  0  0  0  0  0  0  0
  2  7  1  0
  4  8  1  0
  8  9  1  0
  9 10  1  0
 11 16  1  0
 16 17  2  0
 16 18  1  0
  7 19  1  0
 10 11  2  0
 11 12  1  0
 12 13  2  0
 13 15  1  0
 15 14  2  0
 14 10  1  0
  1  2  2  0
  2  5  1  0
  5  6  2  0
  6  4  1  0
  4  3  2  0
  3  1  1  0
 19 20  2  0
 20 21  1  0
 21 22  2  0
 22 24  1  0
 24 23  2  0
 23 19  1  0
M  END

$$$$
