No_4293-gen_results/8p0m/2024-11-27-11-27-31/
     RDKit          3D

 13 13  0  0  0  0  0  0  0  0999 V2000
  -28.1229   -1.3353   28.4874 O   0  0  0  0  0  0  0  0  0  0  0  0
  -28.5208   -0.4363   29.0779 C   0  0  0  0  0  0  0  0  0  0  0  0
  -29.6898   -0.0272   29.0032 C   0  0  0  0  0  0  0  0  0  0  0  0
  -27.5116    0.2147   29.9423 N   0  0  0  0  0  0  0  0  0  0  0  0
  -26.1891   -0.0417   29.9641 C   0  0  0  0  0  0  0  0  0  0  0  0
  -25.5470   -0.6830   30.6773 C   0  0  0  0  0  0  0  0  0  0  0  0
  -24.0674   -1.0050   30.6245 C   0  0  0  0  0  0  0  0  0  0  0  0
  -23.3946   -0.4735   29.4985 C   0  0  0  0  0  0  0  0  0  0  0  0
  -24.1829    0.2311   28.5334 C   0  0  0  0  0  0  0  0  0  0  0  0
  -25.5301    0.4396   28.7013 C   0  0  0  0  0  0  0  0  0  0  0  0
  -30.2265    0.1071   27.8570 C   0  0  0  0  0  0  0  0  0  0  0  0
  -29.5376   -0.2821   26.9471 F   0  0  0  0  0  0  0  0  0  0  0  0
  -31.5550   -0.4722   27.6229 O   0  0  0  0  0  0  0  0  0  0  0  0
  1  2  1  0
  2  3  2  3
  2  4  1  0
  4  5  1  0
  3 11  1  0
 11 12  1  0
 11 13  1  0
  5  6  2  0
  6  7  1  0
  7  8  2  0
  8  9  1  0
  9 10  2  0
 10  5  1  0
M  END

$$$$
