No_4441-gen_results/8p0m/2024-11-27-11-27-31/
     RDKit          3D

 21 22  0  0  0  0  0  0  0  0999 V2000
  -28.0162   -0.8135   28.8779 C   0  0  0  0  0  0  0  0  0  0  0  0
  -27.0636   -0.1190   28.6079 C   0  0  0  0  0  0  0  0  0  0  0  0
  -25.7902   -0.2340   29.1297 C   0  0  0  0  0  0  0  0  0  0  0  0
  -24.6170    0.5841   28.8317 C   0  0  0  0  0  0  0  0  0  0  0  0
  -23.3377    0.4296   29.4273 C   0  0  0  0  0  0  0  0  0  0  0  0
  -27.8089   -1.8626   29.9735 C   0  0  0  0  0  0  0  0  0  0  0  0
  -26.5549   -2.1359   30.4840 C   0  0  0  0  0  0  0  0  0  0  0  0
  -25.4675   -1.3094   30.0779 C   0  0  0  0  0  0  0  0  0  0  0  0
  -24.7030    1.6680   27.8730 C   0  0  0  0  0  0  0  0  0  0  0  0
  -25.8176    2.1588   27.3040 C   0  0  0  0  0  0  0  0  0  0  0  0
  -22.1719    1.0012   28.9874 C   0  0  0  0  0  0  0  0  0  0  0  0
  -22.2124    1.9812   27.9422 C   0  0  0  0  0  0  0  0  0  0  0  0
  -23.4218    2.3311   27.4242 C   0  0  0  0  0  0  0  0  0  0  0  0
  -28.9297   -2.7254   30.4016 C   0  0  0  0  0  0  0  0  0  0  0  0
  -29.8083   -2.3338   30.8033 F   0  0  0  0  0  0  0  0  0  0  0  0
  -28.2943   -3.5375   31.4162 F   0  0  0  0  0  0  0  0  0  0  0  0
  -29.1224   -3.6385   29.3996 F   0  0  0  0  0  0  0  0  0  0  0  0
  -26.6056    2.7672   27.9497 C   0  0  0  0  0  0  0  0  0  0  0  0
  -27.8636    3.3187   27.4169 C   0  0  0  0  0  0  0  0  0  0  0  0
  -28.0748    3.1055   26.0835 C   0  0  0  0  0  0  0  0  0  0  0  0
  -27.1786    2.4129   25.2711 C   0  0  0  0  0  0  0  0  0  0  0  0
  1  2  3  0
  2  3  1  0
  3  4  1  0
  1  6  1  0
  6  7  1  0
  3  8  1  0
  7  8  1  0
  6 14  1  0
 14 15  1  0
 14 16  1  0
 14 17  1  0
 10 18  1  0
 18 19  2  3
 19 20  1  0
 20 21  2  0
 10  9  1  0
  4  5  2  0
  5 11  1  0
 11 12  2  0
 12 13  1  0
 13  9  2  0
  9  4  1  0
M  END

$$$$
