No_4692-gen_results/8p0m/2024-11-27-11-27-31/
     RDKit          3D

 29 32  0  0  0  0  0  0  0  0999 V2000
  -28.0162   -0.8135   28.8779 C   0  0  0  0  0  0  0  0  0  0  0  0
  -27.0636   -0.1190   28.6079 C   0  0  0  0  0  0  0  0  0  0  0  0
  -25.7647   -0.3897   29.0360 C   0  0  0  0  0  0  0  0  0  0  0  0
  -25.5296   -1.5302   29.9014 C   0  0  0  0  0  0  0  0  0  0  0  0
  -26.6888   -2.2893   30.1810 C   0  0  0  0  0  0  0  0  0  0  0  0
  -27.8727   -1.9508   29.7373 C   0  0  0  0  0  0  0  0  0  0  0  0
  -28.9304   -2.7298   30.1154 O   0  0  0  0  0  0  0  0  0  0  0  0
  -24.5394    0.4211   28.7421 C   0  0  0  0  0  0  0  0  0  0  0  0
  -24.5259    1.2743   27.7266 C   0  0  0  0  0  0  0  0  0  0  0  0
  -23.3416    1.9045   27.3361 C   0  0  0  0  0  0  0  0  0  0  0  0
  -22.1280    1.7084   27.9936 C   0  0  0  0  0  0  0  0  0  0  0  0
  -23.2921    0.1076   29.3655 C   0  0  0  0  0  0  0  0  0  0  0  0
  -22.0894    0.7943   29.0137 C   0  0  0  0  0  0  0  0  0  0  0  0
  -28.7729   -3.9943   30.6474 C   0  0  0  0  0  0  0  0  0  0  0  0
  -29.8023   -4.8666   30.2192 C   0  0  0  0  0  0  0  0  0  0  0  0
  -30.4014   -5.5913   31.3117 C   0  0  0  0  0  0  0  0  0  0  0  0
  -29.5960   -5.8683   32.3779 C   0  0  0  0  0  0  0  0  0  0  0  0
  -30.2601   -6.6150   33.4326 C   0  0  0  0  0  0  0  0  0  0  0  0
  -31.1087   -7.2452   33.3837 C   0  0  0  0  0  0  0  0  0  0  0  0
  -31.9972   -7.1862   32.1495 C   0  0  0  0  0  0  0  0  0  0  0  0
  -31.5608   -6.3661   31.0983 C   0  0  0  0  0  0  0  0  0  0  0  0
  -32.3325   -6.3070   29.9160 C   0  0  0  0  0  0  0  0  0  0  0  0
  -32.8880   -5.1553   29.4826 C   0  0  0  0  0  0  0  0  0  0  0  0
  -33.5316   -5.0525   28.2354 C   0  0  0  0  0  0  0  0  0  0  0  0
  -33.9231   -3.8270   27.7145 C   0  0  0  0  0  0  0  0  0  0  0  0
  -34.2825   -3.6682   26.4343 C   0  0  0  0  0  0  0  0  0  0  0  0
  -34.3187   -4.8331   25.5920 C   0  0  0  0  0  0  0  0  0  0  0  0
  -33.8691   -6.0087   26.0626 C   0  0  0  0  0  0  0  0  0  0  0  0
  -33.3899   -6.1039   27.3490 C   0  0  0  0  0  0  0  0  0  0  0  0
  6  7  1  0
  3  8  1  0
  7 14  1  0
 14 15  1  0
 15 16  1  0
 21 22  1  0
 22 23  2  3
 23 24  1  0
  1  2  2  0
  2  3  1  0
  3  4  2  0
  4  5  1  0
  5  6  2  0
  6  1  1  0
 16 17  2  0
 17 18  1  0
 18 19  2  0
 19 20  1  0
 20 21  2  0
 21 16  1  0
 24 25  2  0
 25 26  1  0
 26 27  2  0
 27 28  1  0
 28 29  2  0
 29 24  1  0
  8  9  2  0
  9 10  1  0
 10 11  2  0
 11 13  1  0
 13 12  2  0
 12  8  1  0
M  END

$$$$
