No_4637-gen_results/8p0m/2024-11-27-11-27-31/
     RDKit          3D

 12 13  0  0  0  0  0  0  0  0999 V2000
  -28.0162   -0.8135   28.8779 C   0  0  0  0  0  0  0  0  0  0  0  0
  -28.4690   -0.7850   29.8287 C   0  0  0  0  0  0  0  0  0  0  0  0
  -28.1816    0.4277   28.1134 C   0  0  0  0  0  0  0  0  0  0  0  0
  -27.4498    0.6435   26.8500 C   0  0  0  0  0  0  0  0  0  0  0  0
  -26.4529    0.9939   26.6681 C   0  0  0  0  0  0  0  0  0  0  0  0
  -25.1811    0.8624   26.8164 C   0  0  0  0  0  0  0  0  0  0  0  0
  -24.2187    1.6769   26.2404 C   0  0  0  0  0  0  0  0  0  0  0  0
  -29.4333    0.0827   30.4370 C   0  0  0  0  0  0  0  0  0  0  0  0
  -29.6448    1.2079   29.7312 C   0  0  0  0  0  0  0  0  0  0  0  0
  -29.0324    1.4221   28.5406 C   0  0  0  0  0  0  0  0  0  0  0  0
  -24.7996    2.8208   25.7974 C   0  0  0  0  0  0  0  0  0  0  0  0
  -26.3890    2.4971   25.9701 C   0  0  0  0  0  0  0  0  0  0  0  0
  3  4  1  0
  4  5  2  3
  5  6  1  0
  6  7  1  0
  7 11  2  0
  5 12  1  0
 11 12  1  0
  1  2  2  0
  2  8  1  0
  8  9  2  0
  9 10  1  0
 10  3  2  0
  3  1  1  0
M  END

$$$$
