No_4160-gen_results/8p0m/2024-11-27-11-27-31/
     RDKit          3D

 22 24  0  0  0  0  0  0  0  0999 V2000
  -28.0162   -0.8135   28.8779 C   0  0  0  0  0  0  0  0  0  0  0  0
  -27.0636   -0.1189   28.6079 C   0  0  0  0  0  0  0  0  0  0  0  0
  -25.7923   -0.4302   29.0761 C   0  0  0  0  0  0  0  0  0  0  0  0
  -24.5456    0.3494   28.8225 C   0  0  0  0  0  0  0  0  0  0  0  0
  -24.6586    1.4196   27.8878 C   0  0  0  0  0  0  0  0  0  0  0  0
  -25.9471    1.6811   27.3792 C   0  0  0  0  0  0  0  0  0  0  0  0
  -27.0439    0.9739   27.6871 C   0  0  0  0  0  0  0  0  0  0  0  0
  -29.1882   -0.1472   29.0918 N   0  0  0  0  0  0  0  0  0  0  0  0
  -30.2017   -0.7833   29.7303 C   0  0  0  0  0  0  0  0  0  0  0  0
  -23.4507    2.1524   27.6005 C   0  0  0  0  0  0  0  0  0  0  0  0
  -22.2617    1.7464   28.0912 N   0  0  0  0  0  0  0  0  0  0  0  0
  -23.4838    3.0302   26.5787 N   0  0  0  0  0  0  0  0  0  0  0  0
  -30.3119   -0.9027   30.9329 C   0  0  0  0  0  0  0  0  0  0  0  0
  -29.3846   -0.0935   31.7269 C   0  0  0  0  0  0  0  0  0  0  0  0
  -29.4035    1.1872   31.5853 C   0  0  0  0  0  0  0  0  0  0  0  0
  -29.2720    1.6942   30.2104 C   0  0  0  0  0  0  0  0  0  0  0  0
  -28.9546    1.0430   29.1443 C   0  0  0  0  0  0  0  0  0  0  0  0
  -27.7527    1.6632   28.4007 C   0  0  0  0  0  0  0  0  0  0  0  0
  -25.5387   -1.4912   30.0835 C   0  0  0  0  0  0  0  0  0  0  0  0
  -24.5762   -1.9026   30.3353 F   0  0  0  0  0  0  0  0  0  0  0  0
  -26.2111   -1.0299   31.2712 F   0  0  0  0  0  0  0  0  0  0  0  0
  -26.2651   -2.6307   29.6768 F   0  0  0  0  0  0  0  0  0  0  0  0
  1  2  1  0
  1  8  1  0
  8  9  1  0
  5 10  1  0
 10 11  2  0
 10 12  1  0
  9 13  2  0
 13 14  1  0
 14 15  2  0
 15 16  1  0
  8 17  1  0
 16 17  2  0
  7 18  1  0
 17 18  1  0
  3 19  1  0
 19 20  1  0
 19 21  1  0
 19 22  1  0
  2  3  2  0
  3  4  1  0
  4  5  2  0
  5  6  1  0
  6  7  2  0
  7  2  1  0
M  END

$$$$
