No_456-gen_results/8p0m/2024-11-27-11-27-31/
     RDKit          3D

 35 38  0  0  0  0  0  0  0  0999 V2000
  -28.0162   -0.8135   28.8779 C   0  0  0  0  0  0  0  0  0  0  0  0
  -28.4690   -0.7850   29.8287 C   0  0  0  0  0  0  0  0  0  0  0  0
  -27.0871    0.2903   28.6377 C   0  0  0  0  0  0  0  0  0  0  0  0
  -26.2516    0.4114   27.4223 C   0  0  0  0  0  0  0  0  0  0  0  0
  -28.3913    0.1041   30.9805 C   0  0  0  0  0  0  0  0  0  0  0  0
  -27.5332    1.1666   30.7866 C   0  0  0  0  0  0  0  0  0  0  0  0
  -26.8281    1.2557   29.6454 C   0  0  0  0  0  0  0  0  0  0  0  0
  -26.2894   -0.3207   26.7008 F   0  0  0  0  0  0  0  0  0  0  0  0
  -24.9065    0.6298   27.8498 F   0  0  0  0  0  0  0  0  0  0  0  0
  -26.5253    1.7003   26.8049 F   0  0  0  0  0  0  0  0  0  0  0  0
  -29.4614   -2.0180   30.2134 C   0  0  0  0  0  0  0  0  0  0  0  0
  -30.4920   -1.8765   29.8137 O   0  0  0  0  0  0  0  0  0  0  0  0
  -28.9889   -3.0995   30.8924 N   0  0  0  0  0  0  0  0  0  0  0  0
  -27.5996   -3.3854   31.3102 C   0  0  0  0  0  0  0  0  0  0  0  0
  -29.9311   -4.1623   31.1832 C   0  0  0  0  0  0  0  0  0  0  0  0
  -30.3374   -4.8320   30.0727 C   0  0  0  0  0  0  0  0  0  0  0  0
  -31.2789   -5.8937   30.2729 C   0  0  0  0  0  0  0  0  0  0  0  0
  -31.6016   -6.2606   31.5438 C   0  0  0  0  0  0  0  0  0  0  0  0
  -31.1144   -5.5820   32.6515 C   0  0  0  0  0  0  0  0  0  0  0  0
  -30.2369   -4.5067   32.4799 C   0  0  0  0  0  0  0  0  0  0  0  0
  -31.7754   -6.6283   29.0865 C   0  0  0  0  0  0  0  0  0  0  0  0
  -31.5623   -6.1048   27.8374 C   0  0  0  0  0  0  0  0  0  0  0  0
  -32.0112   -6.7396   26.6578 C   0  0  0  0  0  0  0  0  0  0  0  0
  -32.4866   -8.0348   26.7512 C   0  0  0  0  0  0  0  0  0  0  0  0
  -32.6126   -8.5780   28.0413 C   0  0  0  0  0  0  0  0  0  0  0  0
  -32.2439   -7.9202   29.1681 C   0  0  0  0  0  0  0  0  0  0  0  0
  -32.8883   -8.6912   25.5300 C   0  0  0  0  0  0  0  0  0  0  0  0
  -32.0820   -9.3948   25.0140 C   0  0  0  0  0  0  0  0  0  0  0  0
  -32.1222   -9.7837   23.6683 C   0  0  0  0  0  0  0  0  0  0  0  0
  -33.3303   -9.4279   22.9989 C   0  0  0  0  0  0  0  0  0  0  0  0
  -34.2514   -8.5929   23.5844 C   0  0  0  0  0  0  0  0  0  0  0  0
  -33.9709   -8.0757   24.8350 C   0  0  0  0  0  0  0  0  0  0  0  0
  -33.1296   -9.9341   28.1219 C   0  0  0  0  0  0  0  0  0  0  0  0
  -32.6262  -10.6971   29.0840 C   0  0  0  0  0  0  0  0  0  0  0  0
  -33.0264  -11.9480   29.1978 C   0  0  0  0  0  0  0  0  0  0  0  0
  3  4  1  0
  4  8  1  0
  4  9  1  0
  4 10  1  0
  2 11  1  0
 11 12  2  0
 11 13  1  0
 13 14  1  0
 13 15  1  0
 17 21  1  0
 24 27  1  0
 25 33  1  0
 33 34  1  0
 34 35  2  0
 15 16  2  0
 16 17  1  0
 17 18  2  0
 18 19  1  0
 19 20  2  0
 20 15  1  0
 27 28  2  0
 28 29  1  0
 29 30  2  0
 30 31  1  0
 31 32  2  0
 32 27  1  0
  1  2  2  0
  2  5  1  0
  5  6  2  0
  6  7  1  0
  7  3  2  0
  3  1  1  0
 21 22  2  0
 22 23  1  0
 23 24  2  0
 24 25  1  0
 25 26  2  0
 26 21  1  0
M  END

$$$$
