No_4700-gen_results/8p0m/2024-11-27-11-27-31/
     RDKit          3D

 14 15  0  0  0  0  0  0  0  0999 V2000
  -28.0544   -1.0498   28.7246 N   0  0  0  0  0  0  0  0  0  0  0  0
  -26.9659   -0.4722   28.7709 C   0  0  0  0  0  0  0  0  0  0  0  0
  -25.9289   -1.0196   29.5059 C   0  0  0  0  0  0  0  0  0  0  0  0
  -24.6309   -0.4459   29.5994 C   0  0  0  0  0  0  0  0  0  0  0  0
  -24.4031    0.7890   28.9309 C   0  0  0  0  0  0  0  0  0  0  0  0
  -25.4769    1.3309   28.1733 C   0  0  0  0  0  0  0  0  0  0  0  0
  -26.6735    0.7165   28.0807 C   0  0  0  0  0  0  0  0  0  0  0  0
  -29.0052   -0.6579   29.6894 C   0  0  0  0  0  0  0  0  0  0  0  0
  -30.1007   -0.8487   29.7999 C   0  0  0  0  0  0  0  0  0  0  0  0
  -30.7781   -1.5923   28.7174 C   0  0  0  0  0  0  0  0  0  0  0  0
  -31.9133   -2.2800   28.9597 C   0  0  0  0  0  0  0  0  0  0  0  0
  -32.6286   -2.0551   30.1186 C   0  0  0  0  0  0  0  0  0  0  0  0
  -32.1395   -1.3229   31.1472 C   0  0  0  0  0  0  0  0  0  0  0  0
  -30.8346   -0.8304   31.0403 C   0  0  0  0  0  0  0  0  0  0  0  0
  1  2  1  0
  1  8  1  0
  8  9  1  0
  2  3  2  0
  3  4  1  0
  4  5  2  0
  5  6  1  0
  6  7  2  0
  7  2  1  0
  9 10  2  0
 10 11  1  0
 11 12  2  0
 12 13  1  0
 13 14  2  0
 14  9  1  0
M  END

$$$$
