No_4773-gen_results/8p0m/2024-11-27-11-27-31/
     RDKit          3D

 16 17  0  0  0  0  0  0  0  0999 V2000
  -28.0162   -0.8135   28.8779 C   0  0  0  0  0  0  0  0  0  0  0  0
  -28.4690   -0.7850   29.8287 C   0  0  0  0  0  0  0  0  0  0  0  0
  -28.1816    0.4277   28.1134 C   0  0  0  0  0  0  0  0  0  0  0  0
  -28.9841    1.4155   28.5154 C   0  0  0  0  0  0  0  0  0  0  0  0
  -29.3802    0.1384   30.4612 C   0  0  0  0  0  0  0  0  0  0  0  0
  -29.5415    1.2736   29.7242 C   0  0  0  0  0  0  0  0  0  0  0  0
  -27.3453    0.3423   26.8640 C   0  0  0  0  0  0  0  0  0  0  0  0
  -26.5137    1.4226   26.7101 N   0  0  0  0  0  0  0  0  0  0  0  0
  -25.1907    1.2245   26.4846 C   0  0  0  0  0  0  0  0  0  0  0  0
  -24.3347    2.4320   26.5166 C   0  0  0  0  0  0  0  0  0  0  0  0
  -22.9633    2.3693   26.6343 C   0  0  0  0  0  0  0  0  0  0  0  0
  -22.3751    1.4187   27.5316 C   0  0  0  0  0  0  0  0  0  0  0  0
  -23.2384    0.3529   27.9683 C   0  0  0  0  0  0  0  0  0  0  0  0
  -24.5817    0.2501   27.5209 C   0  0  0  0  0  0  0  0  0  0  0  0
  -27.0580    2.3519   25.6156 C   0  0  0  0  0  0  0  0  0  0  0  0
  -21.1554    1.5054   27.9585 O   0  0  0  0  0  0  0  0  0  0  0  0
  3  7  1  0
  7  8  1  0
  8  9  1  0
  8 15  1  0
 12 16  1  0
  9 10  2  0
 10 11  1  0
 11 12  2  0
 12 13  1  0
 13 14  2  0
 14  9  1  0
  1  2  2  0
  2  5  1  0
  5  6  2  0
  6  4  1  0
  4  3  2  0
  3  1  1  0
M  END

$$$$
