No_4712-gen_results/8p0m/2024-11-27-11-27-31/
     RDKit          3D

 24 25  0  0  0  0  0  0  0  0999 V2000
  -28.0162   -0.8135   28.8779 C   0  0  0  0  0  0  0  0  0  0  0  0
  -27.0636   -0.1189   28.6079 C   0  0  0  0  0  0  0  0  0  0  0  0
  -25.7923   -0.4302   29.0761 C   0  0  0  0  0  0  0  0  0  0  0  0
  -25.5756   -1.5654   29.9363 C   0  0  0  0  0  0  0  0  0  0  0  0
  -26.7354   -2.3004   30.2173 C   0  0  0  0  0  0  0  0  0  0  0  0
  -27.9184   -1.9537   29.7629 C   0  0  0  0  0  0  0  0  0  0  0  0
  -27.1057    1.1023   27.7593 C   0  0  0  0  0  0  0  0  0  0  0  0
  -28.1026    1.2424   27.1566 F   0  0  0  0  0  0  0  0  0  0  0  0
  -26.0037    1.0662   26.8436 F   0  0  0  0  0  0  0  0  0  0  0  0
  -26.8832    2.2591   28.4883 F   0  0  0  0  0  0  0  0  0  0  0  0
  -29.0694   -2.7537   30.2054 C   0  0  0  0  0  0  0  0  0  0  0  0
  -29.4861   -2.5584   31.2925 N   0  0  0  0  0  0  0  0  0  0  0  0
  -30.3062   -3.3211   31.9681 C   0  0  0  0  0  0  0  0  0  0  0  0
  -29.1421   -3.8796   29.7026 O   0  0  0  0  0  0  0  0  0  0  0  0
  -29.4257   -1.1507   31.9368 C   0  0  0  0  0  0  0  0  0  0  0  0
  -30.3277   -0.5437   32.1331 C   0  0  0  0  0  0  0  0  0  0  0  0
  -30.1962    0.8133   32.6611 C   0  0  0  0  0  0  0  0  0  0  0  0
  -28.9338    1.3887   32.7574 C   0  0  0  0  0  0  0  0  0  0  0  0
  -28.0792   -0.4952   32.0454 C   0  0  0  0  0  0  0  0  0  0  0  0
  -27.8795    0.6102   32.6449 C   0  0  0  0  0  0  0  0  0  0  0  0
  -26.5048    1.2261   32.7633 C   0  0  0  0  0  0  0  0  0  0  0  0
  -25.4127    0.5350   32.9608 C   0  0  0  0  0  0  0  0  0  0  0  0
  -26.3954    2.6935   32.5483 C   0  0  0  0  0  0  0  0  0  0  0  0
  -26.9215    3.5276   33.2642 C   0  0  0  0  0  0  0  0  0  0  0  0
  2  7  1  0
  7  8  1  0
  7  9  1  0
  7 10  1  0
  6 11  1  0
 11 12  1  0
 12 13  1  0
 11 14  2  0
 12 15  1  0
 20 21  1  0
 21 22  1  0
 21 23  1  0
 23 24  2  0
 15 16  2  0
 16 17  1  0
 17 18  2  0
 18 20  1  0
 20 19  2  0
 19 15  1  0
  1  2  2  0
  2  3  1  0
  3  4  2  0
  4  5  1  0
  5  6  2  0
  6  1  1  0
M  END

$$$$
