No_4890-gen_results/8p0m/2024-11-27-11-27-31/
     RDKit          3D

 16 17  0  0  0  0  0  0  0  0999 V2000
  -28.0162   -0.8135   28.8779 C   0  0  0  0  0  0  0  0  0  0  0  0
  -27.0636   -0.1190   28.6079 C   0  0  0  0  0  0  0  0  0  0  0  0
  -25.7902   -0.2340   29.1297 C   0  0  0  0  0  0  0  0  0  0  0  0
  -25.5192   -1.2814   30.1157 C   0  0  0  0  0  0  0  0  0  0  0  0
  -26.6422   -2.0927   30.4241 C   0  0  0  0  0  0  0  0  0  0  0  0
  -27.8262   -1.8900   29.8536 C   0  0  0  0  0  0  0  0  0  0  0  0
  -28.8165   -2.7089   30.1810 F   0  0  0  0  0  0  0  0  0  0  0  0
  -24.5856    0.6149   28.8714 C   0  0  0  0  0  0  0  0  0  0  0  0
  -24.5413    1.4105   27.8267 C   0  0  0  0  0  0  0  0  0  0  0  0
  -25.0717    2.1956   27.3313 C   0  0  0  0  0  0  0  0  0  0  0  0
  -24.6789    3.0304   26.1503 C   0  0  0  0  0  0  0  0  0  0  0  0
  -23.4737    2.7301   25.5858 C   0  0  0  0  0  0  0  0  0  0  0  0
  -22.6322    1.8563   26.1654 C   0  0  0  0  0  0  0  0  0  0  0  0
  -22.9845    1.1248   27.3130 C   0  0  0  0  0  0  0  0  0  0  0  0
  -23.5892    0.6127   29.9480 C   0  0  0  0  0  0  0  0  0  0  0  0
  -22.4965    0.0994   29.7788 O   0  0  0  0  0  0  0  0  0  0  0  0
  6  7  1  0
  3  8  1  0
  8  9  1  0
  8 15  1  0
 15 16  2  0
  1  2  2  0
  2  3  1  0
  3  4  2  0
  4  5  1  0
  5  6  2  0
  6  1  1  0
  9 10  2  0
 10 11  1  0
 11 12  2  0
 12 13  1  0
 13 14  2  0
 14  9  1  0
M  END

$$$$
