No_4028-gen_results/8p0m/2024-11-27-11-27-31/
     RDKit          3D

 32 35  0  0  0  0  0  0  0  0999 V2000
  -28.0162   -0.8135   28.8779 C   0  0  0  0  0  0  0  0  0  0  0  0
  -28.4690   -0.7850   29.8287 C   0  0  0  0  0  0  0  0  0  0  0  0
  -27.1356    0.2359   28.5352 C   0  0  0  0  0  0  0  0  0  0  0  0
  -26.8745    1.2825   29.3982 C   0  0  0  0  0  0  0  0  0  0  0  0
  -28.3613    0.1987   30.9244 C   0  0  0  0  0  0  0  0  0  0  0  0
  -27.5277    1.2234   30.6356 C   0  0  0  0  0  0  0  0  0  0  0  0
  -26.3987    0.2949   27.2279 C   0  0  0  0  0  0  0  0  0  0  0  0
  -25.0392    0.2356   27.3538 C   0  0  0  0  0  0  0  0  0  0  0  0
  -27.0287    0.3958   26.0087 C   0  0  0  0  0  0  0  0  0  0  0  0
  -28.3713    0.5360   25.8782 C   0  0  0  0  0  0  0  0  0  0  0  0
  -28.8860    0.5071   24.5687 C   0  0  0  0  0  0  0  0  0  0  0  0
  -30.2841    0.5712   24.3900 C   0  0  0  0  0  0  0  0  0  0  0  0
  -31.1106    0.6022   25.4906 C   0  0  0  0  0  0  0  0  0  0  0  0
  -30.6219    0.5694   26.7682 C   0  0  0  0  0  0  0  0  0  0  0  0
  -29.2916    0.5546   26.9892 C   0  0  0  0  0  0  0  0  0  0  0  0
  -26.1676    1.0584   25.0990 C   0  0  0  0  0  0  0  0  0  0  0  0
  -24.3934   -0.3857   28.4685 C   0  0  0  0  0  0  0  0  0  0  0  0
  -23.1238   -0.0994   28.8491 C   0  0  0  0  0  0  0  0  0  0  0  0
  -22.3579    0.7922   28.0584 C   0  0  0  0  0  0  0  0  0  0  0  0
  -22.9912    1.4960   26.9870 C   0  0  0  0  0  0  0  0  0  0  0  0
  -24.3101    1.3307   26.7617 C   0  0  0  0  0  0  0  0  0  0  0  0
  -24.9141    1.6643   25.4541 C   0  0  0  0  0  0  0  0  0  0  0  0
  -31.6347    0.6520   27.8955 C   0  0  0  0  0  0  0  0  0  0  0  0
  -31.8804   -0.5195   28.3749 F   0  0  0  0  0  0  0  0  0  0  0  0
  -32.7566    1.2307   27.5372 F   0  0  0  0  0  0  0  0  0  0  0  0
  -31.1002    1.3635   28.9413 F   0  0  0  0  0  0  0  0  0  0  0  0
  -29.6498   -2.0802   30.4014 Cl  0  0  0  0  0  0  0  0  0  0  0  0
  -22.3530   -0.8991   30.3321 Br  0  0  0  0  0  0  0  0  0  0  0  0
  -27.3072    2.5343   31.7592 Cl  0  0  0  0  0  0  0  0  0  0  0  0
  -21.1134    1.1347   28.3790 F   0  0  0  0  0  0  0  0  0  0  0  0
  -26.0645    2.3156   29.1748 O   0  0  0  0  0  0  0  0  0  0  0  0
  -25.9712    3.2667   30.0304 C   0  0  0  0  0  0  0  0  0  0  0  0
  3  7  1  0
  9 10  1  0
 14 23  1  0
 23 24  1  0
 23 25  1  0
 23 26  1  0
  2 27  1  0
 18 28  1  0
  6 29  1  0
 19 30  1  0
  4 31  1  0
 31 32  1  0
 10 11  2  0
 11 12  1  0
 12 13  2  0
 13 14  1  0
 14 15  2  0
 15 10  1  0
  7  8  1  0
 21 22  1  0
 22 16  2  0
 16  9  1  0
  9  7  2  0
  1  2  2  0
  2  5  1  0
  5  6  2  0
  6  4  1  0
  4  3  2  0
  3  1  1  0
  8 17  2  0
 17 18  1  0
 18 19  2  0
 19 20  1  0
 20 21  2  0
 21  8  1  0
M  END

$$$$
