No_4875-gen_results/8p0m/2024-11-27-11-27-31/
     RDKit          3D

 21 23  0  0  0  0  0  0  0  0999 V2000
  -28.1229   -1.3353   28.4874 O   0  0  0  0  0  0  0  0  0  0  0  0
  -27.0637   -0.8242   28.8687 C   0  0  0  0  0  0  0  0  0  0  0  0
  -26.4017   -0.0623   28.6224 C   0  0  0  0  0  0  0  0  0  0  0  0
  -26.5721   -1.5844   30.1172 N   0  0  0  0  0  0  0  0  0  0  0  0
  -25.0209    0.3561   29.0444 C   0  0  0  0  0  0  0  0  0  0  0  0
  -24.6541   -0.3468   30.2523 C   0  0  0  0  0  0  0  0  0  0  0  0
  -25.4243   -1.3432   30.6966 C   0  0  0  0  0  0  0  0  0  0  0  0
  -26.9085    0.7722   27.4175 C   0  0  0  0  0  0  0  0  0  0  0  0
  -27.2507    2.1100   27.6584 C   0  0  0  0  0  0  0  0  0  0  0  0
  -26.8552    0.2714   26.1431 C   0  0  0  0  0  0  0  0  0  0  0  0
  -27.3797    0.9234   25.0420 C   0  0  0  0  0  0  0  0  0  0  0  0
  -27.7390    2.8758   26.5326 C   0  0  0  0  0  0  0  0  0  0  0  0
  -27.7961    2.2961   25.2211 C   0  0  0  0  0  0  0  0  0  0  0  0
  -27.4839   -2.6856   30.5884 C   0  0  0  0  0  0  0  0  0  0  0  0
  -28.6898   -2.3286   31.2260 C   0  0  0  0  0  0  0  0  0  0  0  0
  -28.7521   -1.2040   31.8599 C   0  0  0  0  0  0  0  0  0  0  0  0
  -29.7227   -0.6682   32.4071 C   0  0  0  0  0  0  0  0  0  0  0  0
  -29.6426    0.5643   33.1380 C   0  0  0  0  0  0  0  0  0  0  0  0
  -28.4695    1.3434   33.1203 C   0  0  0  0  0  0  0  0  0  0  0  0
  -27.3551    0.7802   32.4430 C   0  0  0  0  0  0  0  0  0  0  0  0
  -27.4758   -0.4376   31.8873 C   0  0  0  0  0  0  0  0  0  0  0  0
  1  2  2  0
  2  3  1  0
  2  4  1  0
  3  5  1  0
  4  7  1  0
  6  7  1  0
  3  8  1  0
  4 14  1  0
 14 15  1  0
 15 16  1  0
  5  6  1  0
  8  9  2  0
  9 12  1  0
 12 13  2  0
 13 11  1  0
 11 10  2  0
 10  8  1  0
 16 17  2  0
 17 18  1  0
 18 19  2  0
 19 20  1  0
 20 21  2  0
 21 16  1  0
M  END

$$$$
