No_4468-gen_results/8p0m/2024-11-27-11-27-31/
     RDKit          3D

 25 27  0  0  0  0  0  0  0  0999 V2000
  -28.0162   -0.8135   28.8779 C   0  0  0  0  0  0  0  0  0  0  0  0
  -27.0636   -0.1189   28.6079 C   0  0  0  0  0  0  0  0  0  0  0  0
  -25.7647   -0.3897   29.0360 C   0  0  0  0  0  0  0  0  0  0  0  0
  -25.5296   -1.5302   29.9014 C   0  0  0  0  0  0  0  0  0  0  0  0
  -26.6888   -2.2893   30.1810 C   0  0  0  0  0  0  0  0  0  0  0  0
  -27.8727   -1.9508   29.7373 C   0  0  0  0  0  0  0  0  0  0  0  0
  -28.8984   -2.7212   30.0727 F   0  0  0  0  0  0  0  0  0  0  0  0
  -24.5420    0.4303   28.7469 C   0  0  0  0  0  0  0  0  0  0  0  0
  -23.3488    0.1283   29.2229 C   0  0  0  0  0  0  0  0  0  0  0  0
  -22.2407    0.9321   28.9098 C   0  0  0  0  0  0  0  0  0  0  0  0
  -22.3417    1.9680   27.8876 C   0  0  0  0  0  0  0  0  0  0  0  0
  -24.6215    1.4389   27.7385 C   0  0  0  0  0  0  0  0  0  0  0  0
  -23.5213    2.1722   27.3612 C   0  0  0  0  0  0  0  0  0  0  0  0
  -23.7132    3.2112   26.3124 C   0  0  0  0  0  0  0  0  0  0  0  0
  -24.9575    3.3727   25.9249 F   0  0  0  0  0  0  0  0  0  0  0  0
  -22.9785    2.9358   25.1770 F   0  0  0  0  0  0  0  0  0  0  0  0
  -23.4807    4.4977   26.6579 F   0  0  0  0  0  0  0  0  0  0  0  0
  -29.2896   -0.5406   28.4903 O   0  0  0  0  0  0  0  0  0  0  0  0
  -30.1316    0.1238   29.2986 C   0  0  0  0  0  0  0  0  0  0  0  0
  -30.8914    0.9977   28.6117 C   0  0  0  0  0  0  0  0  0  0  0  0
  -30.8858    1.1699   27.4899 O   0  0  0  0  0  0  0  0  0  0  0  0
  -31.7985    1.7919   29.3910 N   0  0  0  0  0  0  0  0  0  0  0  0
  -31.8840    1.7436   30.8203 C   0  0  0  0  0  0  0  0  0  0  0  0
  -31.1401    0.6909   31.2909 C   0  0  0  0  0  0  0  0  0  0  0  0
  -30.1629   -0.0619   30.7081 C   0  0  0  0  0  0  0  0  0  0  0  0
  6  7  1  0
  3  8  1  0
 13 14  1  0
 14 15  1  0
 14 16  1  0
 14 17  1  0
  1 18  1  0
 18 19  1  0
 19 20  1  0
 20 21  2  0
 20 22  1  0
 22 23  1  0
 19 25  1  0
 24 25  1  0
 24 23  1  0
  1  2  2  0
  2  3  1  0
  3  4  2  0
  4  5  1  0
  5  6  2  0
  6  1  1  0
  8  9  2  0
  9 10  1  0
 10 11  2  0
 11 13  1  0
 13 12  2  0
 12  8  1  0
M  END

$$$$
