No_4766-gen_results/8p0m/2024-11-27-11-27-31/
     RDKit          3D

 10 10  0  0  0  0  0  0  0  0999 V2000
  -28.0162   -0.8135   28.8779 C   0  0  0  0  0  0  0  0  0  0  0  0
  -27.0636   -0.1189   28.6079 C   0  0  0  0  0  0  0  0  0  0  0  0
  -25.8176   -0.3427   29.0487 N   0  0  0  0  0  0  0  0  0  0  0  0
  -24.6757    0.3814   28.7496 C   0  0  0  0  0  0  0  0  0  0  0  0
  -24.7608    1.3095   27.7159 C   0  0  0  0  0  0  0  0  0  0  0  0
  -27.2322    1.1407   27.8970 C   0  0  0  0  0  0  0  0  0  0  0  0
  -23.5536    2.0551   27.3133 C   0  0  0  0  0  0  0  0  0  0  0  0
  -26.0639    1.8203   27.2976 C   0  0  0  0  0  0  0  0  0  0  0  0
  -29.2301   -0.1093   29.4037 C   0  0  0  0  0  0  0  0  0  0  0  0
  -29.7755    0.6735   28.4808 C   0  0  0  0  0  0  0  0  0  0  0  0
  1  2  1  0
  1  9  1  0
  9 10  2  0
  7  5  1  0
  2  3  2  0
  3  4  1  0
  4  5  2  0
  5  8  1  0
  8  6  2  0
  6  2  1  0
M  END

$$$$
