No_4271-gen_results/8p0m/2024-11-27-11-27-31/
     RDKit          3D

 31 33  0  0  0  0  0  0  0  0999 V2000
  -28.0162   -0.8135   28.8779 C   0  0  0  0  0  0  0  0  0  0  0  0
  -27.0636   -0.1190   28.6079 C   0  0  0  0  0  0  0  0  0  0  0  0
  -25.7923   -0.4302   29.0761 C   0  0  0  0  0  0  0  0  0  0  0  0
  -25.5756   -1.5654   29.9363 C   0  0  0  0  0  0  0  0  0  0  0  0
  -26.7354   -2.3004   30.2173 C   0  0  0  0  0  0  0  0  0  0  0  0
  -27.8207   -1.9449   29.7721 C   0  0  0  0  0  0  0  0  0  0  0  0
  -28.9633   -2.7113   30.1268 O   0  0  0  0  0  0  0  0  0  0  0  0
  -30.0822   -2.1244   30.5824 C   0  0  0  0  0  0  0  0  0  0  0  0
  -30.5936   -2.8400   31.6593 C   0  0  0  0  0  0  0  0  0  0  0  0
  -29.9671   -3.8854   32.1649 C   0  0  0  0  0  0  0  0  0  0  0  0
  -31.7737   -2.4197   32.1695 O   0  0  0  0  0  0  0  0  0  0  0  0
  -30.5617   -4.4901   33.2895 C   0  0  0  0  0  0  0  0  0  0  0  0
  -30.3930   -3.9018   34.4111 C   0  0  0  0  0  0  0  0  0  0  0  0
  -30.1778   -2.7653   34.5058 O   0  0  0  0  0  0  0  0  0  0  0  0
  -29.3681   -2.3319   35.4979 C   0  0  0  0  0  0  0  0  0  0  0  0
  -31.0844   -1.8197   29.5235 C   0  0  0  0  0  0  0  0  0  0  0  0
  -31.1151   -0.6607   29.1388 O   0  0  0  0  0  0  0  0  0  0  0  0
  -31.7742   -2.7320   29.1245 O   0  0  0  0  0  0  0  0  0  0  0  0
  -28.5338   -1.2415   35.1974 C   0  0  0  0  0  0  0  0  0  0  0  0
  -28.5939   -0.1042   35.8070 C   0  0  0  0  0  0  0  0  0  0  0  0
  -29.1107    0.7220   35.4908 C   0  0  0  0  0  0  0  0  0  0  0  0
  -29.5399    1.1415   34.5273 C   0  0  0  0  0  0  0  0  0  0  0  0
  -29.1484    0.2893   33.3378 C   0  0  0  0  0  0  0  0  0  0  0  0
  -29.3146    0.6397   31.9592 C   0  0  0  0  0  0  0  0  0  0  0  0
  -28.5219   -0.9486   33.6338 C   0  0  0  0  0  0  0  0  0  0  0  0
  -28.1983    1.6025   31.5251 C   0  0  0  0  0  0  0  0  0  0  0  0
  -27.1040    1.7380   32.1909 C   0  0  0  0  0  0  0  0  0  0  0  0
  -26.0149    2.5284   31.7142 C   0  0  0  0  0  0  0  0  0  0  0  0
  -26.1242    3.1396   30.4830 C   0  0  0  0  0  0  0  0  0  0  0  0
  -27.3014    3.0736   29.8174 C   0  0  0  0  0  0  0  0  0  0  0  0
  -28.3608    2.2735   30.2872 C   0  0  0  0  0  0  0  0  0  0  0  0
  6  7  1  0
  7  8  1  0
  8  9  1  0
  9 10  1  0
  9 11  2  0
 10 12  1  0
 12 13  1  0
 13 14  1  0
 14 15  1  0
  8 16  1  0
 16 17  2  0
 16 18  1  0
 15 19  1  0
 23 24  1  0
 24 26  1  0
 26 27  2  0
 27 28  1  0
 28 29  2  0
 29 30  1  0
 30 31  2  0
 31 26  1  0
  1  2  2  0
  2  3  1  0
  3  4  2  0
  4  5  1  0
  5  6  2  0
  6  1  1  0
 19 20  2  0
 20 21  1  0
 21 22  2  0
 22 23  1  0
 23 25  2  0
 25 19  1  0
M  END

$$$$
