No_4331-gen_results/8p0m/2024-11-27-11-27-31/
     RDKit          3D

 35 37  0  0  0  0  0  0  0  0999 V2000
  -28.0162   -0.8135   28.8779 C   0  0  0  0  0  0  0  0  0  0  0  0
  -27.0636   -0.1189   28.6079 C   0  0  0  0  0  0  0  0  0  0  0  0
  -25.7923   -0.4302   29.0761 C   0  0  0  0  0  0  0  0  0  0  0  0
  -24.5456    0.3494   28.8225 C   0  0  0  0  0  0  0  0  0  0  0  0
  -24.6586    1.4196   27.8878 C   0  0  0  0  0  0  0  0  0  0  0  0
  -25.9471    1.6811   27.3792 C   0  0  0  0  0  0  0  0  0  0  0  0
  -27.0439    0.9739   27.6871 C   0  0  0  0  0  0  0  0  0  0  0  0
  -28.0241   -1.6475   30.1262 C   0  0  0  0  0  0  0  0  0  0  0  0
  -26.7278   -2.0846   30.5807 C   0  0  0  0  0  0  0  0  0  0  0  0
  -25.5915   -1.4064   30.1489 C   0  0  0  0  0  0  0  0  0  0  0  0
  -23.4486    2.1675   27.5241 C   0  0  0  0  0  0  0  0  0  0  0  0
  -22.7755    1.9225   26.6314 F   0  0  0  0  0  0  0  0  0  0  0  0
  -23.9025    3.5297   27.3438 F   0  0  0  0  0  0  0  0  0  0  0  0
  -22.6808    2.3605   28.6762 F   0  0  0  0  0  0  0  0  0  0  0  0
  -29.1703   -2.4660   30.5236 C   0  0  0  0  0  0  0  0  0  0  0  0
  -29.1685   -3.6461   30.7511 O   0  0  0  0  0  0  0  0  0  0  0  0
  -30.1942   -1.6975   31.0385 N   0  0  0  0  0  0  0  0  0  0  0  0
  -31.4070   -2.3669   31.5830 C   0  0  0  0  0  0  0  0  0  0  0  0
  -28.3218    1.3849   27.0178 C   0  0  0  0  0  0  0  0  0  0  0  0
  -29.0788    2.1069   27.4878 O   0  0  0  0  0  0  0  0  0  0  0  0
  -28.3434    0.9900   25.7543 O   0  0  0  0  0  0  0  0  0  0  0  0
  -30.2910   -0.2419   30.9884 C   0  0  0  0  0  0  0  0  0  0  0  0
  -30.2467    0.3721   32.2867 C   0  0  0  0  0  0  0  0  0  0  0  0
  -30.0554    1.3229   32.5331 C   0  0  0  0  0  0  0  0  0  0  0  0
  -29.9786    1.9214   33.9287 C   0  0  0  0  0  0  0  0  0  0  0  0
  -30.2763    1.0355   34.9334 C   0  0  0  0  0  0  0  0  0  0  0  0
  -30.4750   -0.5703   33.4436 C   0  0  0  0  0  0  0  0  0  0  0  0
  -30.4547   -0.1434   34.6784 N   0  0  0  0  0  0  0  0  0  0  0  0
  -31.8719   -3.3038   30.8823 C   0  0  0  0  0  0  0  0  0  0  0  0
  -31.9575   -1.8517   32.7503 C   0  0  0  0  0  0  0  0  0  0  0  0
  -30.0904   -1.8037   33.4507 O   0  0  0  0  0  0  0  0  0  0  0  0
  -31.8247   -2.6011   33.7580 C   0  0  0  0  0  0  0  0  0  0  0  0
  -29.3357   -2.4641   33.1407 C   0  0  0  0  0  0  0  0  0  0  0  0
  -32.7221   -2.3863   34.8674 C   0  0  0  0  0  0  0  0  0  0  0  0
  -31.3864   -3.9706   33.7773 C   0  0  0  0  0  0  0  0  0  0  0  0
  5 11  1  0
 11 12  1  0
 11 13  1  0
 11 14  1  0
  8 15  1  0
 15 16  2  0
 15 17  1  0
 17 18  1  0
  7 19  1  0
 19 20  1  0
 19 21  2  0
 17 22  1  0
 22 23  1  0
 18 29  1  0
 18 30  1  0
 27 31  1  0
 30 32  1  0
 31 33  1  0
 32 34  1  0
 32 35  1  0
  3  4  1  0
  4  5  2  0
  5  6  1  0
  6  7  2  0
  7  2  1  0
  1  2  2  0
  2  3  1  0
  3 10  2  0
 10  9  1  0
  9  8  2  0
  8  1  1  0
 23 24  2  0
 24 25  1  0
 25 26  2  0
 26 28  1  0
 28 27  2  0
 27 23  1  0
M  END

$$$$
