No_4063-gen_results/8p0m/2024-11-27-11-27-31/
     RDKit          3D

 12 13  0  0  0  0  0  0  0  0999 V2000
  -28.0162   -0.8135   28.8779 C   0  0  0  0  0  0  0  0  0  0  0  0
  -27.0636   -0.1190   28.6079 C   0  0  0  0  0  0  0  0  0  0  0  0
  -27.0010    0.6913   27.4910 C   0  0  0  0  0  0  0  0  0  0  0  0
  -25.7770    1.0214   26.9135 C   0  0  0  0  0  0  0  0  0  0  0  0
  -25.5749    1.7787   25.7418 C   0  0  0  0  0  0  0  0  0  0  0  0
  -28.8357   -0.4486   29.5809 C   0  0  0  0  0  0  0  0  0  0  0  0
  -25.5711   -0.4319   28.9879 C   0  0  0  0  0  0  0  0  0  0  0  0
  -24.6356    0.3257   27.6238 C   0  0  0  0  0  0  0  0  0  0  0  0
  -30.0152   -1.3100   30.1012 C   0  0  0  0  0  0  0  0  0  0  0  0
  -29.6743   -2.5387   30.4395 C   0  0  0  0  0  0  0  0  0  0  0  0
  -28.3652   -3.0314   30.1196 C   0  0  0  0  0  0  0  0  0  0  0  0
  -27.4255   -2.1882   29.5043 C   0  0  0  0  0  0  0  0  0  0  0  0
  1  2  1  0
  2  3  1  0
  3  4  2  0
  4  5  1  0
  2  7  1  0
  4  8  1  0
  7  8  2  0
  1  6  2  0
  6  9  1  0
  9 10  2  0
 10 11  1  0
 11 12  2  0
 12  1  1  0
M  END

$$$$
