No_4032-gen_results/8p0m/2024-11-27-11-27-31/
     RDKit          3D

 11 11  0  0  0  0  0  0  0  0999 V2000
  -28.0727   -1.2542   28.5316 F   0  0  0  0  0  0  0  0  0  0  0  0
  -27.3591   -0.3792   28.7224 C   0  0  0  0  0  0  0  0  0  0  0  0
  -27.7576    0.4972   29.4008 F   0  0  0  0  0  0  0  0  0  0  0  0
  -26.0810   -0.3916   28.0774 C   0  0  0  0  0  0  0  0  0  0  0  0
  -25.7306    0.7169   27.3094 C   0  0  0  0  0  0  0  0  0  0  0  0
  -24.3802    1.0846   27.2187 C   0  0  0  0  0  0  0  0  0  0  0  0
  -23.9368    2.2215   26.4263 C   0  0  0  0  0  0  0  0  0  0  0  0
  -22.6053    2.5755   26.4028 C   0  0  0  0  0  0  0  0  0  0  0  0
  -21.7450    1.8920   27.2471 C   0  0  0  0  0  0  0  0  0  0  0  0
  -22.1692    0.9133   28.1453 C   0  0  0  0  0  0  0  0  0  0  0  0
  -23.4309    0.5496   28.1283 C   0  0  0  0  0  0  0  0  0  0  0  0
  1  2  1  0
  2  3  1  0
  2  4  1  0
  4  5  1  0
  5  6  1  0
  6  7  2  0
  7  8  1  0
  8  9  2  0
  9 10  1  0
 10 11  2  0
 11  6  1  0
M  END

$$$$
