No_4936-gen_results/8p0m/2024-11-27-11-27-31/
     RDKit          3D

 34 37  0  0  0  0  0  0  0  0999 V2000
  -28.0162   -0.8135   28.8779 C   0  0  0  0  0  0  0  0  0  0  0  0
  -27.0636   -0.1189   28.6079 C   0  0  0  0  0  0  0  0  0  0  0  0
  -26.9716    0.7139   27.5060 C   0  0  0  0  0  0  0  0  0  0  0  0
  -28.1053    0.7744   26.6421 C   0  0  0  0  0  0  0  0  0  0  0  0
  -29.2008    0.1044   27.0527 C   0  0  0  0  0  0  0  0  0  0  0  0
  -29.2096   -0.6029   28.1853 C   0  0  0  0  0  0  0  0  0  0  0  0
  -30.3702    0.2264   26.1604 C   0  0  0  0  0  0  0  0  0  0  0  0
  -30.2991    0.2342   24.9383 N   0  0  0  0  0  0  0  0  0  0  0  0
  -31.5326    0.1001   26.7070 O   0  0  0  0  0  0  0  0  0  0  0  0
  -25.7010   -0.2218   29.4257 C   0  0  0  0  0  0  0  0  0  0  0  0
  -25.5116   -0.8122   30.2529 C   0  0  0  0  0  0  0  0  0  0  0  0
  -24.4879   -1.0508   30.9000 C   0  0  0  0  0  0  0  0  0  0  0  0
  -23.2264   -0.3749   30.5809 C   0  0  0  0  0  0  0  0  0  0  0  0
  -23.3420    0.4280   29.4925 C   0  0  0  0  0  0  0  0  0  0  0  0
  -24.6055    0.5561   28.7663 C   0  0  0  0  0  0  0  0  0  0  0  0
  -22.2363    1.0978   29.0583 O   0  0  0  0  0  0  0  0  0  0  0  0
  -22.3037    1.6141   27.7284 C   0  0  0  0  0  0  0  0  0  0  0  0
  -31.4277    0.1655   24.0000 C   0  0  0  0  0  0  0  0  0  0  0  0
  -29.2194   -0.5773   24.2515 C   0  0  0  0  0  0  0  0  0  0  0  0
  -23.4082    2.0909   27.1157 C   0  0  0  0  0  0  0  0  0  0  0  0
  -24.5947    1.3775   27.6037 C   0  0  0  0  0  0  0  0  0  0  0  0
  -25.8964    1.4628   26.9354 C   0  0  0  0  0  0  0  0  0  0  0  0
  -26.0766    2.4534   26.1448 O   0  0  0  0  0  0  0  0  0  0  0  0
  -28.1763   -1.5427   29.9839 O   0  0  0  0  0  0  0  0  0  0  0  0
  -28.3445   -2.9168   29.9132 C   0  0  0  0  0  0  0  0  0  0  0  0
  -29.2376   -3.3927   30.9535 C   0  0  0  0  0  0  0  0  0  0  0  0
  -29.3133   -4.6493   30.9773 O   0  0  0  0  0  0  0  0  0  0  0  0
  -29.5510   -5.4522   31.6459 C   0  0  0  0  0  0  0  0  0  0  0  0
  -29.8823   -5.1608   32.9086 C   0  0  0  0  0  0  0  0  0  0  0  0
  -30.8191   -4.5375   32.9739 C   0  0  0  0  0  0  0  0  0  0  0  0
  -31.4194   -4.2505   34.2088 C   0  0  0  0  0  0  0  0  0  0  0  0
  -32.5089   -3.2652   34.4635 C   0  0  0  0  0  0  0  0  0  0  0  0
  -32.9114   -2.5742   33.3137 C   0  0  0  0  0  0  0  0  0  0  0  0
  -32.2946   -2.7519   32.0915 C   0  0  0  0  0  0  0  0  0  0  0  0
  5  7  1  0
  7  8  1  0
  7  9  2  0
  2 10  1  0
 14 16  1  0
 16 17  1  0
  8 18  1  0
  8 19  1  0
 17 20  2  0
 15 21  1  0
 20 21  1  0
  3 22  1  0
 21 22  1  0
 22 23  2  0
  1 24  1  0
 24 25  1  0
 25 26  1  0
 26 27  1  0
 27 28  1  0
 28 29  2  3
 29 30  1  0
 30 31  2  3
 31 32  1  0
 32 33  2  3
 33 34  1  0
  1  2  2  0
  2  3  1  0
  3  4  2  0
  4  5  1  0
  5  6  2  0
  6  1  1  0
 10 11  2  0
 11 12  1  0
 12 13  2  0
 13 14  1  0
 14 15  2  0
 15 10  1  0
M  END

$$$$
