No_4048-gen_results/8p0m/2024-11-27-11-27-31/
     RDKit          3D

 29 32  0  0  0  0  0  0  0  0999 V2000
  -28.1493   -0.8198   28.9079 Cl  0  0  0  0  0  0  0  0  0  0  0  0
  -26.9116   -0.0797   28.9452 C   0  0  0  0  0  0  0  0  0  0  0  0
  -26.0490   -0.0718   27.8591 C   0  0  0  0  0  0  0  0  0  0  0  0
  -24.7194    0.4034   27.9174 C   0  0  0  0  0  0  0  0  0  0  0  0
  -24.2099    0.9302   29.0839 C   0  0  0  0  0  0  0  0  0  0  0  0
  -25.0231    0.9078   30.1875 C   0  0  0  0  0  0  0  0  0  0  0  0
  -26.2532    0.3904   30.1401 C   0  0  0  0  0  0  0  0  0  0  0  0
  -22.4678    1.5956   29.0567 Br  0  0  0  0  0  0  0  0  0  0  0  0
  -27.0502    0.3968   31.4384 C   0  0  0  0  0  0  0  0  0  0  0  0
  -27.5367   -0.5222   31.8685 C   0  0  0  0  0  0  0  0  0  0  0  0
  -28.3228   -0.5563   33.1504 C   0  0  0  0  0  0  0  0  0  0  0  0
  -28.2095    0.5773   33.9470 C   0  0  0  0  0  0  0  0  0  0  0  0
  -27.5069    1.6781   33.4846 C   0  0  0  0  0  0  0  0  0  0  0  0
  -26.8836    1.6221   32.2477 C   0  0  0  0  0  0  0  0  0  0  0  0
  -28.8736    0.6166   35.1458 O   0  0  0  0  0  0  0  0  0  0  0  0
  -29.8745    0.6853   35.4174 C   0  0  0  0  0  0  0  0  0  0  0  0
  -30.6814    1.5081   34.8682 C   0  0  0  0  0  0  0  0  0  0  0  0
  -32.1381    1.5799   35.1513 C   0  0  0  0  0  0  0  0  0  0  0  0
  -32.5826    0.6388   36.0978 C   0  0  0  0  0  0  0  0  0  0  0  0
  -31.7593   -0.2353   36.6914 C   0  0  0  0  0  0  0  0  0  0  0  0
  -30.3936   -0.2674   36.4283 C   0  0  0  0  0  0  0  0  0  0  0  0
  -33.8704    0.6661   36.4508 F   0  0  0  0  0  0  0  0  0  0  0  0
  -32.9607    2.5614   34.5261 C   0  0  0  0  0  0  0  0  0  0  0  0
  -32.7519    2.9178   33.3141 C   0  0  0  0  0  0  0  0  0  0  0  0
  -33.5839    3.9215   32.6567 C   0  0  0  0  0  0  0  0  0  0  0  0
  -33.3111    4.3628   31.3841 C   0  0  0  0  0  0  0  0  0  0  0  0
  -32.2066    3.7816   30.7201 C   0  0  0  0  0  0  0  0  0  0  0  0
  -31.3912    2.8272   31.2741 C   0  0  0  0  0  0  0  0  0  0  0  0
  -31.6287    2.4663   32.5062 C   0  0  0  0  0  0  0  0  0  0  0  0
  1  2  1  0
  5  8  1  0
  7  9  1  0
 12 15  1  0
 15 16  1  0
 19 22  1  0
 18 23  1  0
 23 24  1  0
  2  3  2  0
  3  4  1  0
  4  5  2  0
  5  6  1  0
  6  7  2  0
  7  2  1  0
 24 25  2  0
 25 26  1  0
 26 27  2  0
 27 28  1  0
 28 29  2  0
 29 24  1  0
  9 10  2  0
 10 11  1  0
 11 12  2  0
 12 13  1  0
 13 14  2  0
 14  9  1  0
 16 17  2  0
 17 18  1  0
 18 19  2  0
 19 20  1  0
 20 21  2  0
 21 16  1  0
M  END

$$$$
