No_4807-gen_results/8p0m/2024-11-27-11-27-31/
     RDKit          3D

 29 31  0  0  0  0  0  0  0  0999 V2000
  -28.0162   -0.8135   28.8779 C   0  0  0  0  0  0  0  0  0  0  0  0
  -27.0636   -0.1190   28.6079 C   0  0  0  0  0  0  0  0  0  0  0  0
  -25.7923   -0.4302   29.0761 C   0  0  0  0  0  0  0  0  0  0  0  0
  -25.5756   -1.5654   29.9363 C   0  0  0  0  0  0  0  0  0  0  0  0
  -24.3722   -1.9422   30.4466 C   0  0  0  0  0  0  0  0  0  0  0  0
  -27.9640   -1.9247   29.7899 C   0  0  0  0  0  0  0  0  0  0  0  0
  -26.7624   -2.3055   30.3031 C   0  0  0  0  0  0  0  0  0  0  0  0
  -23.7002   -0.9072   31.1951 C   0  0  0  0  0  0  0  0  0  0  0  0
  -22.4777   -0.8610   31.2618 N   0  0  0  0  0  0  0  0  0  0  0  0
  -24.4472    0.0976   31.5913 O   0  0  0  0  0  0  0  0  0  0  0  0
  -29.3193   -0.4709   28.4770 O   0  0  0  0  0  0  0  0  0  0  0  0
  -29.7582    0.8015   28.5906 C   0  0  0  0  0  0  0  0  0  0  0  0
  -29.7438    1.4680   27.4167 C   0  0  0  0  0  0  0  0  0  0  0  0
  -29.7693    0.8776   26.2300 C   0  0  0  0  0  0  0  0  0  0  0  0
  -29.6609    1.5853   24.9515 C   0  0  0  0  0  0  0  0  0  0  0  0
  -29.4912    1.0244   23.7394 C   0  0  0  0  0  0  0  0  0  0  0  0
  -29.4594   -0.3855   23.7198 C   0  0  0  0  0  0  0  0  0  0  0  0
  -29.7836   -1.2046   24.8214 C   0  0  0  0  0  0  0  0  0  0  0  0
  -29.8793   -0.5623   26.0859 C   0  0  0  0  0  0  0  0  0  0  0  0
  -31.1231    0.7903   29.2316 C   0  0  0  0  0  0  0  0  0  0  0  0
  -31.7193    1.6431   29.4110 O   0  0  0  0  0  0  0  0  0  0  0  0
  -31.5127   -0.4331   29.5618 O   0  0  0  0  0  0  0  0  0  0  0  0
  -29.6396    2.9595   27.4133 C   0  0  0  0  0  0  0  0  0  0  0  0
  -29.8281    3.7427   28.4098 C   0  0  0  0  0  0  0  0  0  0  0  0
  -29.5921    5.1337   28.4071 C   0  0  0  0  0  0  0  0  0  0  0  0
  -29.6745    5.9625   29.5127 C   0  0  0  0  0  0  0  0  0  0  0  0
  -30.0078    5.3056   30.7453 C   0  0  0  0  0  0  0  0  0  0  0  0
  -30.0693    4.2248   30.8145 C   0  0  0  0  0  0  0  0  0  0  0  0
  -29.9333    3.3114   29.7596 C   0  0  0  0  0  0  0  0  0  0  0  0
  5  8  1  0
  8  9  2  0
  8 10  1  0
  1 11  1  0
 11 12  1  0
 12 13  1  0
 12 20  1  0
 20 21  1  0
 20 22  2  0
 13 23  1  0
 13 14  1  0
 23 24  1  0
  5  4  1  0
 14 15  2  0
 15 16  1  0
 16 17  2  0
 17 18  1  0
 18 19  2  0
 19 14  1  0
 24 25  2  0
 25 26  1  0
 26 27  2  0
 27 28  1  0
 28 29  2  0
 29 24  1  0
  1  2  2  0
  2  3  1  0
  3  4  2  0
  4  7  1  0
  7  6  2  0
  6  1  1  0
M  END

$$$$
