No_4421-gen_results/8p0m/2024-11-27-11-27-31/
     RDKit          3D

 13 14  0  0  0  0  0  0  0  0999 V2000
  -28.0162   -0.8135   28.8779 C   0  0  0  0  0  0  0  0  0  0  0  0
  -27.0636   -0.1189   28.6079 C   0  0  0  0  0  0  0  0  0  0  0  0
  -26.9287    1.1713   29.0083 C   0  0  0  0  0  0  0  0  0  0  0  0
  -27.9560    1.7411   29.7840 C   0  0  0  0  0  0  0  0  0  0  0  0
  -29.0569   -0.3271   29.7466 C   0  0  0  0  0  0  0  0  0  0  0  0
  -28.9828    0.9722   30.1516 C   0  0  0  0  0  0  0  0  0  0  0  0
  -26.0500   -0.7687   27.9914 F   0  0  0  0  0  0  0  0  0  0  0  0
  -30.0896    1.5287   30.9750 C   0  0  0  0  0  0  0  0  0  0  0  0
  -31.0096    2.1399   30.6715 C   0  0  0  0  0  0  0  0  0  0  0  0
  -32.0274    2.6822   31.5663 C   0  0  0  0  0  0  0  0  0  0  0  0
  -29.9171    1.1716   32.4329 C   0  0  0  0  0  0  0  0  0  0  0  0
  -30.8523    1.6509   33.3568 C   0  0  0  0  0  0  0  0  0  0  0  0
  -31.8883    2.4097   32.9173 C   0  0  0  0  0  0  0  0  0  0  0  0
  2  7  1  0
  6  8  1  0
  8  9  2  0
  9 10  1  0
 10 13  2  0
 13 12  1  0
 12 11  2  0
 11  8  1  0
  1  2  2  0
  2  3  1  0
  3  4  2  0
  4  6  1  0
  6  5  2  0
  5  1  1  0
M  END

$$$$
