No_4237-gen_results/8p0m/2024-11-27-11-27-31/
     RDKit          3D

 35 37  0  0  0  0  0  0  0  0999 V2000
  -28.0162   -0.8135   28.8779 C   0  0  0  0  0  0  0  0  0  0  0  0
  -27.0636   -0.1189   28.6079 C   0  0  0  0  0  0  0  0  0  0  0  0
  -25.7647   -0.3897   29.0360 C   0  0  0  0  0  0  0  0  0  0  0  0
  -24.5516    0.4058   28.7646 C   0  0  0  0  0  0  0  0  0  0  0  0
  -23.2300    0.1178   29.2575 C   0  0  0  0  0  0  0  0  0  0  0  0
  -22.1393    0.9427   28.9224 C   0  0  0  0  0  0  0  0  0  0  0  0
  -27.8294   -1.9287   29.8545 C   0  0  0  0  0  0  0  0  0  0  0  0
  -26.5882   -2.3272   30.2682 C   0  0  0  0  0  0  0  0  0  0  0  0
  -25.4565   -1.5432   29.9146 C   0  0  0  0  0  0  0  0  0  0  0  0
  -22.2302    1.9089   27.8723 C   0  0  0  0  0  0  0  0  0  0  0  0
  -24.5538    1.4700   27.7617 C   0  0  0  0  0  0  0  0  0  0  0  0
  -23.4471    2.1666   27.3764 C   0  0  0  0  0  0  0  0  0  0  0  0
  -28.7650   -2.8278   30.2241 O   0  0  0  0  0  0  0  0  0  0  0  0
  -29.9638   -2.3742   30.5500 C   0  0  0  0  0  0  0  0  0  0  0  0
  -30.9354   -3.3247   30.2871 C   0  0  0  0  0  0  0  0  0  0  0  0
  -30.7281   -4.4331   30.1516 O   0  0  0  0  0  0  0  0  0  0  0  0
  -32.2105   -3.0388   30.5700 O   0  0  0  0  0  0  0  0  0  0  0  0
  -23.6041    3.0812   26.4269 F   0  0  0  0  0  0  0  0  0  0  0  0
  -30.1480   -1.2847   31.0336 O   0  0  0  0  0  0  0  0  0  0  0  0
  -33.2605   -3.5842   29.9768 C   0  0  0  0  0  0  0  0  0  0  0  0
  -33.5961   -3.6586   28.9182 C   0  0  0  0  0  0  0  0  0  0  0  0
  -32.7682   -2.7754   27.9829 C   0  0  0  0  0  0  0  0  0  0  0  0
  -32.8878   -2.9854   26.5119 C   0  0  0  0  0  0  0  0  0  0  0  0
  -32.1050   -2.1839   25.7741 C   0  0  0  0  0  0  0  0  0  0  0  0
  -31.3593   -1.0695   26.1841 C   0  0  0  0  0  0  0  0  0  0  0  0
  -30.5751   -0.2149   25.4422 C   0  0  0  0  0  0  0  0  0  0  0  0
  -30.3908   -0.7118   24.1035 C   0  0  0  0  0  0  0  0  0  0  0  0
  -31.0135   -1.8170   23.6099 C   0  0  0  0  0  0  0  0  0  0  0  0
  -31.8277   -2.5071   24.4267 C   0  0  0  0  0  0  0  0  0  0  0  0
  -34.4845   -3.1006   30.9191 C   0  0  0  0  0  0  0  0  0  0  0  0
  -34.6585   -3.3832   31.9520 O   0  0  0  0  0  0  0  0  0  0  0  0
  -35.2768   -2.2240   30.2964 O   0  0  0  0  0  0  0  0  0  0  0  0
  -34.2823   -2.8265   26.1407 N   0  0  0  0  0  0  0  0  0  0  0  0
  -35.0411   -3.8094   25.6764 C   0  0  0  0  0  0  0  0  0  0  0  0
  -34.4597   -5.4003   25.6412 Cl  0  0  0  0  0  0  0  0  0  0  0  0
  3  4  1  0
  7 13  1  0
 13 14  1  0
 14 15  1  0
 15 16  2  0
 15 17  1  0
 12 18  1  0
 14 19  2  0
 17 20  1  0
 20 21  2  3
 21 22  1  0
 22 23  2  3
 23 24  1  0
 20 30  1  0
 30 31  2  0
 30 32  1  0
 23 33  1  0
 33 34  1  0
 34 35  1  0
 24 25  2  0
 25 26  1  0
 26 27  2  0
 27 28  1  0
 28 29  2  0
 29 24  1  0
  1  2  2  0
  2  3  1  0
  3  9  2  0
  9  8  1  0
  8  7  2  0
  7  1  1  0
  4  5  2  0
  5  6  1  0
  6 10  2  0
 10 12  1  0
 12 11  2  0
 11  4  1  0
M  END

$$$$
