No_4699-gen_results/8p0m/2024-11-27-11-27-31/
     RDKit          3D

 20 22  0  0  0  0  0  0  0  0999 V2000
  -28.0162   -0.8135   28.8779 C   0  0  0  0  0  0  0  0  0  0  0  0
  -27.0636   -0.1190   28.6079 C   0  0  0  0  0  0  0  0  0  0  0  0
  -25.7923   -0.4302   29.0761 C   0  0  0  0  0  0  0  0  0  0  0  0
  -25.5756   -1.5654   29.9363 C   0  0  0  0  0  0  0  0  0  0  0  0
  -26.7354   -2.3004   30.2173 C   0  0  0  0  0  0  0  0  0  0  0  0
  -27.9184   -1.9537   29.7629 C   0  0  0  0  0  0  0  0  0  0  0  0
  -29.0001   -2.7012   30.1151 O   0  0  0  0  0  0  0  0  0  0  0  0
  -24.6739    0.5156   28.7788 C   0  0  0  0  0  0  0  0  0  0  0  0
  -23.4771    0.2747   29.3487 C   0  0  0  0  0  0  0  0  0  0  0  0
  -22.3779    0.8284   28.9530 C   0  0  0  0  0  0  0  0  0  0  0  0
  -22.3352    1.7216   27.8366 C   0  0  0  0  0  0  0  0  0  0  0  0
  -23.5323    2.0495   27.2802 C   0  0  0  0  0  0  0  0  0  0  0  0
  -24.6899    1.3414   27.6594 C   0  0  0  0  0  0  0  0  0  0  0  0
  -28.8740   -3.9629   30.6086 C   0  0  0  0  0  0  0  0  0  0  0  0
  -30.0872   -4.6158   30.8834 C   0  0  0  0  0  0  0  0  0  0  0  0
  -30.0204   -5.6657   31.6698 C   0  0  0  0  0  0  0  0  0  0  0  0
  -30.8899   -6.7509   31.4382 C   0  0  0  0  0  0  0  0  0  0  0  0
  -31.9435   -6.6387   30.5375 C   0  0  0  0  0  0  0  0  0  0  0  0
  -31.9591   -5.5299   29.6847 C   0  0  0  0  0  0  0  0  0  0  0  0
  -30.9630   -4.5811   29.8103 C   0  0  0  0  0  0  0  0  0  0  0  0
  6  7  1  0
  3  8  1  0
  7 14  1  0
 14 15  1  0
 15 16  2  0
 16 17  1  0
 17 18  2  0
 18 19  1  0
 19 20  2  0
 20 15  1  0
  1  2  2  0
  2  3  1  0
  3  4  2  0
  4  5  1  0
  5  6  2  0
  6  1  1  0
  8  9  2  0
  9 10  1  0
 10 11  2  0
 11 12  1  0
 12 13  2  0
 13  8  1  0
M  END

$$$$
