No_472-gen_results/8p0m/2024-11-27-11-27-31/
     RDKit          3D

 27 29  0  0  0  0  0  0  0  0999 V2000
  -28.0162   -0.8135   28.8779 C   0  0  0  0  0  0  0  0  0  0  0  0
  -28.4690   -0.7850   29.8287 C   0  0  0  0  0  0  0  0  0  0  0  0
  -27.0871    0.2903   28.6377 C   0  0  0  0  0  0  0  0  0  0  0  0
  -26.2516    0.4114   27.4223 C   0  0  0  0  0  0  0  0  0  0  0  0
  -28.3913    0.1041   30.9805 C   0  0  0  0  0  0  0  0  0  0  0  0
  -27.5332    1.1666   30.7866 C   0  0  0  0  0  0  0  0  0  0  0  0
  -26.8281    1.2557   29.6454 C   0  0  0  0  0  0  0  0  0  0  0  0
  -26.4976    0.1078   26.4201 O   0  0  0  0  0  0  0  0  0  0  0  0
  -24.9975    1.0823   27.5363 N   0  0  0  0  0  0  0  0  0  0  0  0
  -24.3347    1.4452   28.7243 C   0  0  0  0  0  0  0  0  0  0  0  0
  -23.1328    0.8858   28.9833 C   0  0  0  0  0  0  0  0  0  0  0  0
  -22.8665   -0.3848   28.6672 C   0  0  0  0  0  0  0  0  0  0  0  0
  -21.5892   -1.0109   29.0923 C   0  0  0  0  0  0  0  0  0  0  0  0
  -20.5184   -0.1528   29.1361 C   0  0  0  0  0  0  0  0  0  0  0  0
  -20.6502    1.2422   28.9477 C   0  0  0  0  0  0  0  0  0  0  0  0
  -22.0292    1.8280   28.9646 C   0  0  0  0  0  0  0  0  0  0  0  0
  -24.4513    2.9820   28.9316 C   0  0  0  0  0  0  0  0  0  0  0  0
  -24.2155    1.2110   26.3617 C   0  0  0  0  0  0  0  0  0  0  0  0
  -24.7867    3.4398   30.0565 O   0  0  0  0  0  0  0  0  0  0  0  0
  -24.4820    3.7756   27.8936 O   0  0  0  0  0  0  0  0  0  0  0  0
  -27.4027    2.1829   31.8976 C   0  0  0  0  0  0  0  0  0  0  0  0
  -28.3825    2.3488   32.8161 C   0  0  0  0  0  0  0  0  0  0  0  0
  -28.2283    3.3389   33.8128 C   0  0  0  0  0  0  0  0  0  0  0  0
  -27.5853    4.1608   33.7717 C   0  0  0  0  0  0  0  0  0  0  0  0
  -26.4291    4.2517   32.7458 C   0  0  0  0  0  0  0  0  0  0  0  0
  -26.4573    3.2313   31.8137 C   0  0  0  0  0  0  0  0  0  0  0  0
  -25.2349    3.6826   26.7683 C   0  0  0  0  0  0  0  0  0  0  0  0
  3  4  1  0
  4  8  2  0
  4  9  1  0
  9 10  1  0
 10 11  1  0
 10 17  1  0
  9 18  1  0
 17 19  2  0
 17 20  1  0
  6 21  1  0
 20 27  1  0
 11 12  2  0
 12 13  1  0
 13 14  2  0
 14 15  1  0
 15 16  2  0
 16 11  1  0
  1  2  2  0
  2  5  1  0
  5  6  2  0
  6  7  1  0
  7  3  2  0
  3  1  1  0
 21 22  2  0
 22 23  1  0
 23 24  2  0
 24 25  1  0
 25 26  2  0
 26 21  1  0
M  END

$$$$
