No_4472-gen_results/8p0m/2024-11-27-11-27-31/
     RDKit          3D

 11 11  0  0  0  0  0  0  0  0999 V2000
  -28.0162   -0.8135   28.8779 C   0  0  0  0  0  0  0  0  0  0  0  0
  -28.4690   -0.7850   29.8287 C   0  0  0  0  0  0  0  0  0  0  0  0
  -27.1356    0.2359   28.5352 C   0  0  0  0  0  0  0  0  0  0  0  0
  -26.8745    1.2825   29.3982 C   0  0  0  0  0  0  0  0  0  0  0  0
  -25.9742    2.3797   29.0831 C   0  0  0  0  0  0  0  0  0  0  0  0
  -28.3915    0.1302   30.9603 C   0  0  0  0  0  0  0  0  0  0  0  0
  -27.5035    1.2424   30.6700 C   0  0  0  0  0  0  0  0  0  0  0  0
  -25.5545    2.6476   28.2068 N   0  0  0  0  0  0  0  0  0  0  0  0
  -25.3502    1.9032   27.1913 C   0  0  0  0  0  0  0  0  0  0  0  0
  -24.3427    2.1334   26.1829 C   0  0  0  0  0  0  0  0  0  0  0  0
  -23.9149    3.3728   26.2907 C   0  0  0  0  0  0  0  0  0  0  0  0
  4  5  1  0
  5  8  2  3
  8  9  1  0
  9 10  1  0
 10 11  2  0
  1  2  2  0
  2  6  1  0
  6  7  2  0
  7  4  1  0
  4  3  2  0
  3  1  1  0
M  END

$$$$
