No_4175-gen_results/8p0m/2024-11-27-11-27-31/
     RDKit          3D

 25 26  0  0  0  0  0  0  0  0999 V2000
  -28.0162   -0.8135   28.8779 C   0  0  0  0  0  0  0  0  0  0  0  0
  -27.0636   -0.1189   28.6079 C   0  0  0  0  0  0  0  0  0  0  0  0
  -25.7647   -0.3897   29.0360 C   0  0  0  0  0  0  0  0  0  0  0  0
  -25.5296   -1.5302   29.9014 C   0  0  0  0  0  0  0  0  0  0  0  0
  -26.6577   -2.2915   30.2035 C   0  0  0  0  0  0  0  0  0  0  0  0
  -27.8548   -1.9555   29.7630 C   0  0  0  0  0  0  0  0  0  0  0  0
  -24.5441    0.4126   28.7379 C   0  0  0  0  0  0  0  0  0  0  0  0
  -23.3232    0.0476   29.0499 C   0  0  0  0  0  0  0  0  0  0  0  0
  -22.1997    0.8411   28.7194 C   0  0  0  0  0  0  0  0  0  0  0  0
  -22.3632    1.8394   27.7172 C   0  0  0  0  0  0  0  0  0  0  0  0
  -24.6043    1.5165   27.8119 C   0  0  0  0  0  0  0  0  0  0  0  0
  -23.5582    2.1898   27.3588 C   0  0  0  0  0  0  0  0  0  0  0  0
  -29.2116   -2.8985   30.2284 Cl  0  0  0  0  0  0  0  0  0  0  0  0
  -23.7293    3.2355   26.5303 F   0  0  0  0  0  0  0  0  0  0  0  0
  -29.3089   -0.6370   28.6371 O   0  0  0  0  0  0  0  0  0  0  0  0
  -30.0590    0.1230   29.4296 C   0  0  0  0  0  0  0  0  0  0  0  0
  -30.6383    1.1933   28.7461 C   0  0  0  0  0  0  0  0  0  0  0  0
  -30.6757    1.3562   27.4823 C   0  0  0  0  0  0  0  0  0  0  0  0
  -30.9166    0.4869   26.7986 F   0  0  0  0  0  0  0  0  0  0  0  0
  -29.4467    1.8159   27.0072 F   0  0  0  0  0  0  0  0  0  0  0  0
  -31.3790    2.4115   26.9322 F   0  0  0  0  0  0  0  0  0  0  0  0
  -30.0610    2.3860   29.4344 F   0  0  0  0  0  0  0  0  0  0  0  0
  -31.8519    1.4937   29.3602 F   0  0  0  0  0  0  0  0  0  0  0  0
  -30.9764   -0.7004   30.1513 O   0  0  0  0  0  0  0  0  0  0  0  0
  -24.4275   -1.7843   30.5574 O   0  0  0  0  0  0  0  0  0  0  0  0
  2  3  1  0
  3  4  1  0
  4  5  1  0
  1  6  1  0
  3  7  1  0
  6 13  1  0
 12 14  1  0
  1 15  1  0
 15 16  1  0
 16 17  1  0
 17 18  1  0
 18 19  1  0
 18 20  1  0
 18 21  1  0
 17 22  1  0
 17 23  1  0
 16 24  1  0
  4 25  2  0
  2  1  1  0
  6  5  1  0
  7  8  2  0
  8  9  1  0
  9 10  2  0
 10 12  1  0
 12 11  2  0
 11  7  1  0
M  END

$$$$
