No_4411-gen_results/8p0m/2024-11-27-11-27-31/
     RDKit          3D

 17 19  0  0  0  0  0  0  0  0999 V2000
  -28.0162   -0.8135   28.8779 C   0  0  0  0  0  0  0  0  0  0  0  0
  -27.0636   -0.1190   28.6079 C   0  0  0  0  0  0  0  0  0  0  0  0
  -26.9716    0.7139   27.5060 C   0  0  0  0  0  0  0  0  0  0  0  0
  -25.8205    1.4909   27.1160 C   0  0  0  0  0  0  0  0  0  0  0  0
  -24.6562    1.4242   27.9180 C   0  0  0  0  0  0  0  0  0  0  0  0
  -24.6847    0.5901   29.0659 C   0  0  0  0  0  0  0  0  0  0  0  0
  -25.8099   -0.1266   29.3338 C   0  0  0  0  0  0  0  0  0  0  0  0
  -27.9662   -1.6794   30.0086 N   0  0  0  0  0  0  0  0  0  0  0  0
  -23.4718    2.1970   27.6168 C   0  0  0  0  0  0  0  0  0  0  0  0
  -22.5847    2.2534   28.4844 O   0  0  0  0  0  0  0  0  0  0  0  0
  -23.3186    2.7414   26.4613 O   0  0  0  0  0  0  0  0  0  0  0  0
  -29.0560   -2.3088   30.5251 C   0  0  0  0  0  0  0  0  0  0  0  0
  -30.1862   -1.7546   30.4165 C   0  0  0  0  0  0  0  0  0  0  0  0
  -30.3807   -0.8123   29.3731 C   0  0  0  0  0  0  0  0  0  0  0  0
  -29.3083   -0.2120   28.8131 C   0  0  0  0  0  0  0  0  0  0  0  0
  -26.6189   -2.1647   30.4028 C   0  0  0  0  0  0  0  0  0  0  0  0
  -25.6787   -1.2355   30.3424 C   0  0  0  0  0  0  0  0  0  0  0  0
  2  3  1  0
  3  4  1  0
  4  5  1  0
  5  6  1  0
  2  7  1  0
  6  7  1  0
  1  8  1  0
  5  9  1  0
  9 10  2  0
  9 11  1  0
  8 12  1  0
 12 13  1  0
  1 15  1  0
 14 15  1  0
  8 16  1  0
  7 17  1  0
 16 17  1  0
 14 13  1  0
  1  2  1  0
M  END

$$$$
