No_4181-gen_results/8p0m/2024-11-27-11-27-31/
     RDKit          3D

 10  9  0  0  0  0  0  0  0  0999 V2000
  -28.0162   -0.8135   28.8779 C   0  0  0  0  0  0  0  0  0  0  0  0
  -28.4690   -0.7850   29.8287 C   0  0  0  0  0  0  0  0  0  0  0  0
  -27.2166   -0.0832   27.9639 C   0  0  0  0  0  0  0  0  0  0  0  0
  -27.0905    1.2695   28.4177 C   0  0  0  0  0  0  0  0  0  0  0  0
  -27.6655    1.5758   29.6941 C   0  0  0  0  0  0  0  0  0  0  0  0
  -28.3335    0.6031   30.4319 C   0  0  0  0  0  0  0  0  0  0  0  0
  -27.5174    3.1358   30.3058 Cl  0  0  0  0  0  0  0  0  0  0  0  0
  -27.1158    1.2968   28.7712 Cl  0  0  0  0  0  0  0  0  0  0  0  0
  -28.4708    1.5109   30.4041 Cl  0  0  0  0  0  0  0  0  0  0  0  0
  -26.6461    1.3920   30.1087 F   0  0  0  0  0  0  0  0  0  0  0  0
  1  2  3  0
  1  3  1  0
  3  4  2  3
  4  5  1  0
  2  6  1  0
  5  7  1  0
  4  8  1  0
  6  9  1  0
  5 10  1  0
M  END

$$$$
