No_4415-gen_results/8p0m/2024-11-27-11-27-31/
     RDKit          3D

 21 23  0  0  0  0  0  0  0  0999 V2000
  -28.0162   -0.8135   28.8779 C   0  0  0  0  0  0  0  0  0  0  0  0
  -27.0636   -0.1189   28.6079 C   0  0  0  0  0  0  0  0  0  0  0  0
  -26.8756    1.1325   28.9134 C   0  0  0  0  0  0  0  0  0  0  0  0
  -27.9014    1.8066   29.6436 C   0  0  0  0  0  0  0  0  0  0  0  0
  -28.9449    1.0388   30.0360 C   0  0  0  0  0  0  0  0  0  0  0  0
  -29.0273   -0.2890   29.7051 C   0  0  0  0  0  0  0  0  0  0  0  0
  -25.6959    1.9505   28.4764 C   0  0  0  0  0  0  0  0  0  0  0  0
  -24.7049    1.7243   28.1388 C   0  0  0  0  0  0  0  0  0  0  0  0
  -23.6089    2.6292   27.6365 C   0  0  0  0  0  0  0  0  0  0  0  0
  -22.3590    2.1173   27.2592 C   0  0  0  0  0  0  0  0  0  0  0  0
  -21.9815    0.7956   27.7434 C   0  0  0  0  0  0  0  0  0  0  0  0
  -22.8198    0.0178   28.4707 C   0  0  0  0  0  0  0  0  0  0  0  0
  -24.0719    0.4333   28.7052 C   0  0  0  0  0  0  0  0  0  0  0  0
  -26.1526    3.5033   28.3965 C   0  0  0  0  0  0  0  0  0  0  0  0
  -30.2984   -1.3400   30.1769 Cl  0  0  0  0  0  0  0  0  0  0  0  0
  -26.6838    4.0439   27.4687 C   0  0  0  0  0  0  0  0  0  0  0  0
  -27.1017    3.3160   26.2836 C   0  0  0  0  0  0  0  0  0  0  0  0
  -28.3362    3.6387   25.6593 C   0  0  0  0  0  0  0  0  0  0  0  0
  -28.9056    4.8778   26.0131 C   0  0  0  0  0  0  0  0  0  0  0  0
  -28.4194    5.7065   27.0363 C   0  0  0  0  0  0  0  0  0  0  0  0
  -27.4012    5.2999   27.7711 C   0  0  0  0  0  0  0  0  0  0  0  0
  3  7  1  0
  7 14  1  0
  6 15  1  0
 14 16  1  0
  7  8  1  0
  1  2  2  0
  2  3  1  0
  3  4  2  0
  4  5  1  0
  5  6  2  0
  6  1  1  0
  8  9  2  0
  9 10  1  0
 10 11  2  0
 11 12  1  0
 12 13  2  0
 13  8  1  0
 16 17  2  0
 17 18  1  0
 18 19  2  0
 19 20  1  0
 20 21  2  0
 21 16  1  0
M  END

$$$$
