No_4966-gen_results/8p0m/2024-11-27-11-27-31/
     RDKit          3D

 29 33  0  0  0  0  0  0  0  0999 V2000
  -28.0162   -0.8135   28.8779 C   0  0  0  0  0  0  0  0  0  0  0  0
  -27.0636   -0.1190   28.6079 C   0  0  0  0  0  0  0  0  0  0  0  0
  -25.7923   -0.4302   29.0761 C   0  0  0  0  0  0  0  0  0  0  0  0
  -24.5456    0.3494   28.8225 C   0  0  0  0  0  0  0  0  0  0  0  0
  -23.2409    0.0217   29.3323 C   0  0  0  0  0  0  0  0  0  0  0  0
  -28.1914   -1.2584   30.0884 C   0  0  0  0  0  0  0  0  0  0  0  0
  -27.0146   -1.7105   30.8278 C   0  0  0  0  0  0  0  0  0  0  0  0
  -25.7836   -1.1022   30.4102 C   0  0  0  0  0  0  0  0  0  0  0  0
  -22.1136    0.6558   28.8215 C   0  0  0  0  0  0  0  0  0  0  0  0
  -22.1448    1.5150   27.7429 C   0  0  0  0  0  0  0  0  0  0  0  0
  -24.5131    1.2154   27.6444 C   0  0  0  0  0  0  0  0  0  0  0  0
  -23.3528    1.8069   27.1985 C   0  0  0  0  0  0  0  0  0  0  0  0
  -29.4367   -1.9773   30.5706 C   0  0  0  0  0  0  0  0  0  0  0  0
  -30.3891   -1.4361   30.0945 O   0  0  0  0  0  0  0  0  0  0  0  0
  -29.4254   -3.2617   31.0664 N   0  0  0  0  0  0  0  0  0  0  0  0
  -30.6640   -3.9573   31.3264 C   0  0  0  0  0  0  0  0  0  0  0  0
  -23.4360    2.6679   26.1288 N   0  0  0  0  0  0  0  0  0  0  0  0
  -30.4560   -5.2766   31.4596 C   0  0  0  0  0  0  0  0  0  0  0  0
  -29.2348   -5.6732   31.7984 C   0  0  0  0  0  0  0  0  0  0  0  0
  -28.0783   -5.1261   31.2590 C   0  0  0  0  0  0  0  0  0  0  0  0
  -28.1322   -3.8267   30.8200 C   0  0  0  0  0  0  0  0  0  0  0  0
  -27.1293   -3.3358   30.5164 O   0  0  0  0  0  0  0  0  0  0  0  0
  -31.5747   -5.8667   32.3998 C   0  0  0  0  0  0  0  0  0  0  0  0
  -32.3828   -5.5188   32.9000 C   0  0  0  0  0  0  0  0  0  0  0  0
  -33.5490   -6.2166   33.5082 C   0  0  0  0  0  0  0  0  0  0  0  0
  -33.4938   -7.5877   33.4039 C   0  0  0  0  0  0  0  0  0  0  0  0
  -32.4869   -8.2054   32.7606 C   0  0  0  0  0  0  0  0  0  0  0  0
  -31.4794   -7.4704   32.1651 C   0  0  0  0  0  0  0  0  0  0  0  0
  -31.6978   -3.3379   31.2348 O   0  0  0  0  0  0  0  0  0  0  0  0
  3  4  1  0
  6 13  1  0
 13 14  2  0
 13 15  1  0
 15 16  1  0
 12 17  1  0
 16 18  1  0
 19 20  1  0
 15 21  1  0
  7 22  1  0
 21 22  1  0
 18 23  1  0
 16 29  2  0
 18 19  1  0
 20 21  1  0
 23 24  2  0
 24 25  1  0
 25 26  2  0
 26 27  1  0
 27 28  2  0
 28 23  1  0
  1  2  2  0
  2  3  1  0
  3  8  2  0
  8  7  1  0
  7  6  2  0
  6  1  1  0
  4  5  2  0
  5  9  1  0
  9 10  2  0
 10 12  1  0
 12 11  2  0
 11  4  1  0
M  END

$$$$
