No_4935-gen_results/8p0m/2024-11-27-11-27-31/
     RDKit          3D

 20 21  0  0  0  0  0  0  0  0999 V2000
  -28.0162   -0.8135   28.8779 C   0  0  0  0  0  0  0  0  0  0  0  0
  -27.0636   -0.1189   28.6079 C   0  0  0  0  0  0  0  0  0  0  0  0
  -27.0010    0.6913   27.4910 C   0  0  0  0  0  0  0  0  0  0  0  0
  -25.8548    1.4825   27.0830 C   0  0  0  0  0  0  0  0  0  0  0  0
  -24.6901    1.4526   27.8807 C   0  0  0  0  0  0  0  0  0  0  0  0
  -24.7379    0.6010   29.0416 C   0  0  0  0  0  0  0  0  0  0  0  0
  -25.8234   -0.1688   29.3887 C   0  0  0  0  0  0  0  0  0  0  0  0
  -28.7568   -0.5479   30.0191 N   0  0  0  0  0  0  0  0  0  0  0  0
  -29.7597   -1.3260   30.5171 C   0  0  0  0  0  0  0  0  0  0  0  0
  -30.3964   -0.9170   31.6880 C   0  0  0  0  0  0  0  0  0  0  0  0
  -28.5369    0.6053   30.8302 C   0  0  0  0  0  0  0  0  0  0  0  0
  -29.1462    0.9775   31.9134 C   0  0  0  0  0  0  0  0  0  0  0  0
  -30.1143    0.2013   32.3866 C   0  0  0  0  0  0  0  0  0  0  0  0
  -23.3746    1.9396   27.6532 C   0  0  0  0  0  0  0  0  0  0  0  0
  -22.3058    1.6600   28.3803 N   0  0  0  0  0  0  0  0  0  0  0  0
  -23.1381    2.4778   26.4242 O   0  0  0  0  0  0  0  0  0  0  0  0
  -28.1189    0.8381   26.5926 C   0  0  0  0  0  0  0  0  0  0  0  0
  -29.1245    1.2594   27.0860 F   0  0  0  0  0  0  0  0  0  0  0  0
  -27.8325    1.7693   25.6184 F   0  0  0  0  0  0  0  0  0  0  0  0
  -28.4370   -0.1783   25.6877 F   0  0  0  0  0  0  0  0  0  0  0  0
  1  2  1  0
  1  8  1  0
  8  9  1  0
  8 11  1  0
 10 13  1  0
 12 13  1  0
  5 14  1  0
 14 15  1  0
 14 16  2  0
  3 17  1  0
 17 18  1  0
 17 19  1  0
 17 20  1  0
  9 10  1  0
 12 11  1  0
  2  3  2  0
  3  4  1  0
  4  5  2  0
  5  6  1  0
  6  7  2  0
  7  2  1  0
M  END

$$$$
