No_4675-gen_results/8p0m/2024-11-27-11-27-31/
     RDKit          3D

 22 23  0  0  0  0  0  0  0  0999 V2000
  -28.0162   -0.8135   28.8779 C   0  0  0  0  0  0  0  0  0  0  0  0
  -28.4690   -0.7850   29.8287 C   0  0  0  0  0  0  0  0  0  0  0  0
  -26.5042   -0.7777   28.8766 C   0  0  0  0  0  0  0  0  0  0  0  0
  -25.8103   -0.8531   30.1028 C   0  0  0  0  0  0  0  0  0  0  0  0
  -27.9906   -0.8916   31.2257 C   0  0  0  0  0  0  0  0  0  0  0  0
  -26.6042   -0.8676   31.2652 C   0  0  0  0  0  0  0  0  0  0  0  0
  -29.9385   -0.8194   29.8358 O   0  0  0  0  0  0  0  0  0  0  0  0
  -30.5356   -0.1119   28.9448 C   0  0  0  0  0  0  0  0  0  0  0  0
  -31.4855    0.7958   29.2937 C   0  0  0  0  0  0  0  0  0  0  0  0
  -32.1905    1.5258   28.2934 C   0  0  0  0  0  0  0  0  0  0  0  0
  -31.9213    1.2545   26.9437 C   0  0  0  0  0  0  0  0  0  0  0  0
  -30.9833    0.2928   26.6141 C   0  0  0  0  0  0  0  0  0  0  0  0
  -30.3016   -0.3892   27.5787 C   0  0  0  0  0  0  0  0  0  0  0  0
  -30.6806    0.0091   25.1925 C   0  0  0  0  0  0  0  0  0  0  0  0
  -31.0078   -1.1899   24.7277 C   0  0  0  0  0  0  0  0  0  0  0  0
  -29.2256    0.3579   24.8896 C   0  0  0  0  0  0  0  0  0  0  0  0
  -31.4166    1.0970   24.2837 C   0  0  0  0  0  0  0  0  0  0  0  0
  -28.7260    1.6358   24.7686 C   0  0  0  0  0  0  0  0  0  0  0  0
  -27.3108    1.8646   24.9194 C   0  0  0  0  0  0  0  0  0  0  0  0
  -26.8104    3.1494   25.3152 C   0  0  0  0  0  0  0  0  0  0  0  0
  -27.7635    4.1462   25.5656 C   0  0  0  0  0  0  0  0  0  0  0  0
  -29.1518    3.9500   25.4379 C   0  0  0  0  0  0  0  0  0  0  0  0
  2  7  1  0
  7  8  1  0
 12 14  1  0
 14 15  1  0
 14 16  1  0
 14 17  1  0
 16 18  2  3
 18 19  1  0
 19 20  2  3
 20 21  1  0
 21 22  2  0
  8  9  2  0
  9 10  1  0
 10 11  2  0
 11 12  1  0
 12 13  2  0
 13  8  1  0
  1  2  2  0
  2  5  1  0
  5  6  2  0
  6  4  1  0
  4  3  2  0
  3  1  1  0
M  END

$$$$
