No_4340-gen_results/8p0m/2024-11-27-11-27-31/
     RDKit          3D

 19 21  0  0  0  0  0  0  0  0999 V2000
  -28.0162   -0.8135   28.8779 C   0  0  0  0  0  0  0  0  0  0  0  0
  -27.0636   -0.1189   28.6079 C   0  0  0  0  0  0  0  0  0  0  0  0
  -26.9716    0.7139   27.5060 C   0  0  0  0  0  0  0  0  0  0  0  0
  -28.1053    0.7744   26.6421 C   0  0  0  0  0  0  0  0  0  0  0  0
  -29.2008    0.1044   27.0527 C   0  0  0  0  0  0  0  0  0  0  0  0
  -29.2096   -0.6029   28.1853 C   0  0  0  0  0  0  0  0  0  0  0  0
  -30.3045    0.2267   26.2604 O   0  0  0  0  0  0  0  0  0  0  0  0
  -25.7141   -0.2197   29.4065 C   0  0  0  0  0  0  0  0  0  0  0  0
  -25.4132   -1.0544   30.0373 C   0  0  0  0  0  0  0  0  0  0  0  0
  -24.3506   -1.3580   30.4692 C   0  0  0  0  0  0  0  0  0  0  0  0
  -23.1809   -0.4571   30.4236 C   0  0  0  0  0  0  0  0  0  0  0  0
  -23.4488    0.6621   29.6053 C   0  0  0  0  0  0  0  0  0  0  0  0
  -24.7357    0.7947   29.0090 C   0  0  0  0  0  0  0  0  0  0  0  0
  -30.4803   -0.6294   25.3307 C   0  0  0  0  0  0  0  0  0  0  0  0
  -24.8466    1.9308   28.1493 C   0  0  0  0  0  0  0  0  0  0  0  0
  -23.8255    2.9154   27.9590 C   0  0  0  0  0  0  0  0  0  0  0  0
  -26.1277    1.8684   27.3598 C   0  0  0  0  0  0  0  0  0  0  0  0
  -26.3556    2.8607   26.5471 O   0  0  0  0  0  0  0  0  0  0  0  0
  -22.6343    2.5541   27.8708 O   0  0  0  0  0  0  0  0  0  0  0  0
  5  7  1  0
  2  8  1  0
  7 14  1  0
 13 15  1  0
 15 16  2  0
  3 17  1  0
 15 17  1  0
 17 18  2  0
 16 19  2  0
  1  2  2  0
  2  3  1  0
  3  4  2  0
  4  5  1  0
  5  6  2  0
  6  1  1  0
  8  9  2  0
  9 10  1  0
 10 11  2  0
 11 12  1  0
 12 13  2  0
 13  8  1  0
M  END

$$$$
