No_4201-gen_results/8p0m/2024-11-27-11-27-31/
     RDKit          3D

 20 22  0  0  0  0  0  0  0  0999 V2000
  -28.1229   -1.3353   28.4874 O   0  0  0  0  0  0  0  0  0  0  0  0
  -27.4806   -0.4044   28.7094 C   0  0  0  0  0  0  0  0  0  0  0  0
  -26.3804   -0.0867   27.9394 C   0  0  0  0  0  0  0  0  0  0  0  0
  -27.6664    0.4468   29.8988 N   0  0  0  0  0  0  0  0  0  0  0  0
  -25.1773   -0.4388   28.3946 C   0  0  0  0  0  0  0  0  0  0  0  0
  -23.9281   -0.2469   27.6677 C   0  0  0  0  0  0  0  0  0  0  0  0
  -24.0115    0.7683   26.6848 C   0  0  0  0  0  0  0  0  0  0  0  0
  -25.2436    1.2341   26.2435 C   0  0  0  0  0  0  0  0  0  0  0  0
  -26.3955    0.8712   26.8685 C   0  0  0  0  0  0  0  0  0  0  0  0
  -28.7606    0.1154   30.7715 C   0  0  0  0  0  0  0  0  0  0  0  0
  -26.8564    1.5271   30.2014 C   0  0  0  0  0  0  0  0  0  0  0  0
  -27.2650    2.5633   30.5646 C   0  0  0  0  0  0  0  0  0  0  0  0
  -28.2384    2.5283   31.6353 C   0  0  0  0  0  0  0  0  0  0  0  0
  -29.2890    1.4736   31.3589 C   0  0  0  0  0  0  0  0  0  0  0  0
  -27.6760    1.3487   26.5335 C   0  0  0  0  0  0  0  0  0  0  0  0
  -27.9716    1.7870   25.2354 C   0  0  0  0  0  0  0  0  0  0  0  0
  -28.7818    1.5041   27.4227 C   0  0  0  0  0  0  0  0  0  0  0  0
  -30.0398    2.1228   26.9994 C   0  0  0  0  0  0  0  0  0  0  0  0
  -29.1540    2.3387   24.7833 C   0  0  0  0  0  0  0  0  0  0  0  0
  -30.1429    2.5398   25.6837 C   0  0  0  0  0  0  0  0  0  0  0  0
  1  2  2  0
  2  3  1  0
  2  4  1  0
  4 10  1  0
  4 11  1  0
 12 13  1  0
 10 14  1  0
 13 14  1  0
  9 15  1  0
 12 11  1  0
  3  5  2  0
  5  6  1  0
  6  7  2  0
  7  8  1  0
  8  9  2  0
  9  3  1  0
 15 16  2  0
 16 19  1  0
 19 20  2  0
 20 18  1  0
 18 17  2  0
 17 15  1  0
M  END

$$$$
