No_4703-gen_results/8p0m/2024-11-27-11-27-31/
     RDKit          3D

 35 37  0  0  0  0  0  0  0  0999 V2000
  -28.0162   -0.8135   28.8779 C   0  0  0  0  0  0  0  0  0  0  0  0
  -28.4690   -0.7850   29.8287 C   0  0  0  0  0  0  0  0  0  0  0  0
  -27.0871    0.2903   28.6377 C   0  0  0  0  0  0  0  0  0  0  0  0
  -26.8317    1.2487   29.5869 C   0  0  0  0  0  0  0  0  0  0  0  0
  -28.3914    0.0801   31.0065 C   0  0  0  0  0  0  0  0  0  0  0  0
  -27.4940    1.1521   30.7841 C   0  0  0  0  0  0  0  0  0  0  0  0
  -26.3172    0.3994   27.3653 C   0  0  0  0  0  0  0  0  0  0  0  0
  -26.8815    0.9711   26.3721 C   0  0  0  0  0  0  0  0  0  0  0  0
  -26.1464    0.9703   25.0973 C   0  0  0  0  0  0  0  0  0  0  0  0
  -24.7793    0.5609   25.1117 C   0  0  0  0  0  0  0  0  0  0  0  0
  -25.0074   -0.1159   27.2986 C   0  0  0  0  0  0  0  0  0  0  0  0
  -24.2881    0.0057   26.2234 C   0  0  0  0  0  0  0  0  0  0  0  0
  -24.3927   -0.7309   28.5286 C   0  0  0  0  0  0  0  0  0  0  0  0
  -23.5733   -1.2064   29.0224 C   0  0  0  0  0  0  0  0  0  0  0  0
  -22.4103   -1.4745   29.7716 C   0  0  0  0  0  0  0  0  0  0  0  0
  -28.2777    1.4744   26.2682 C   0  0  0  0  0  0  0  0  0  0  0  0
  -29.1535    1.3026   26.9454 C   0  0  0  0  0  0  0  0  0  0  0  0
  -30.4595    1.9124   26.8642 C   0  0  0  0  0  0  0  0  0  0  0  0
  -30.6035    2.7578   25.8128 C   0  0  0  0  0  0  0  0  0  0  0  0
  -28.6674    2.4902   25.2007 C   0  0  0  0  0  0  0  0  0  0  0  0
  -29.6654    3.1030   24.9847 C   0  0  0  0  0  0  0  0  0  0  0  0
  -29.4625   -2.0029   30.2861 C   0  0  0  0  0  0  0  0  0  0  0  0
  -30.6177   -1.8862   29.9422 O   0  0  0  0  0  0  0  0  0  0  0  0
  -28.9811   -3.0292   30.8515 O   0  0  0  0  0  0  0  0  0  0  0  0
  -25.9244    2.4211   29.4005 C   0  0  0  0  0  0  0  0  0  0  0  0
  -25.4763    2.9509   30.3558 O   0  0  0  0  0  0  0  0  0  0  0  0
  -25.7596    2.8945   28.1884 O   0  0  0  0  0  0  0  0  0  0  0  0
  -24.9003    3.9895   28.0627 C   0  0  0  0  0  0  0  0  0  0  0  0
  -25.6016    5.2815   28.0304 C   0  0  0  0  0  0  0  0  0  0  0  0
  -26.7129    5.2068   27.8191 C   0  0  0  0  0  0  0  0  0  0  0  0
  -27.5949    6.0578   28.5666 C   0  0  0  0  0  0  0  0  0  0  0  0
  -29.0882    5.9395   28.5028 C   0  0  0  0  0  0  0  0  0  0  0  0
  -29.9227    6.6418   29.3108 C   0  0  0  0  0  0  0  0  0  0  0  0
  -29.3804    7.6203   30.1150 C   0  0  0  0  0  0  0  0  0  0  0  0
  -28.0563    7.8331   30.1883 C   0  0  0  0  0  0  0  0  0  0  0  0
  3  7  1  0
 11 13  1  0
 13 14  3  0
 14 15  1  0
  8 16  1  0
  2 22  1  0
 22 23  2  0
 22 24  1  0
  4 25  1  0
 25 26  2  0
 25 27  1  0
 27 28  1  0
 28 29  1  0
 29 30  1  0
 30 31  2  3
 31 32  1  0
 32 33  1  0
 33 34  2  3
 34 35  1  0
  7  8  1  0
  8  9  2  0
  9 10  1  0
 10 12  2  0
 12 11  1  0
 11  7  2  0
  1  2  2  0
  2  5  1  0
  5  6  2  0
  6  4  1  0
  4  3  2  0
  3  1  1  0
 16 17  2  0
 17 18  1  0
 18 19  2  0
 19 21  1  0
 21 20  2  0
 20 16  1  0
M  END

$$$$
