No_4628-gen_results/8p0m/2024-11-27-11-27-31/
     RDKit          3D

 24 26  0  0  0  0  0  0  0  0999 V2000
  -28.0162   -0.8135   28.8779 C   0  0  0  0  0  0  0  0  0  0  0  0
  -27.0636   -0.1190   28.6079 C   0  0  0  0  0  0  0  0  0  0  0  0
  -25.7923   -0.4302   29.0761 C   0  0  0  0  0  0  0  0  0  0  0  0
  -24.5456    0.3494   28.8225 C   0  0  0  0  0  0  0  0  0  0  0  0
  -23.2409    0.0217   29.3323 C   0  0  0  0  0  0  0  0  0  0  0  0
  -27.8820   -1.8995   29.8633 C   0  0  0  0  0  0  0  0  0  0  0  0
  -26.6706   -2.3272   30.3212 C   0  0  0  0  0  0  0  0  0  0  0  0
  -25.5433   -1.5852   29.9316 C   0  0  0  0  0  0  0  0  0  0  0  0
  -22.1918    0.8302   29.0004 C   0  0  0  0  0  0  0  0  0  0  0  0
  -22.1472    1.7783   28.0287 C   0  0  0  0  0  0  0  0  0  0  0  0
  -24.6254    1.6458   28.1951 C   0  0  0  0  0  0  0  0  0  0  0  0
  -23.4130    2.2586   27.6822 C   0  0  0  0  0  0  0  0  0  0  0  0
  -29.0595   -2.7310   30.2931 C   0  0  0  0  0  0  0  0  0  0  0  0
  -30.1192   -2.3676   30.1409 O   0  0  0  0  0  0  0  0  0  0  0  0
  -28.7474   -3.9974   30.6534 O   0  0  0  0  0  0  0  0  0  0  0  0
  -25.7300    2.0779   27.6995 O   0  0  0  0  0  0  0  0  0  0  0  0
  -25.7622    3.3794   27.0522 C   0  0  0  0  0  0  0  0  0  0  0  0
  -26.8926    4.1115   27.3976 C   0  0  0  0  0  0  0  0  0  0  0  0
  -28.0256    3.6577   27.4664 C   0  0  0  0  0  0  0  0  0  0  0  0
  -29.1803    4.4871   27.8119 C   0  0  0  0  0  0  0  0  0  0  0  0
  -28.9598    5.8839   28.0166 C   0  0  0  0  0  0  0  0  0  0  0  0
  -27.7050    6.4199   27.8882 C   0  0  0  0  0  0  0  0  0  0  0  0
  -26.6084    5.5828   27.5984 C   0  0  0  0  0  0  0  0  0  0  0  0
  -24.7645    3.7987   26.8148 O   0  0  0  0  0  0  0  0  0  0  0  0
  3  4  1  0
  6 13  1  0
 13 14  2  0
 13 15  1  0
 11 16  1  0
 16 17  1  0
 17 18  1  0
 17 24  2  0
 18 19  2  0
 19 20  1  0
 20 21  2  0
 21 22  1  0
 22 23  2  0
 23 18  1  0
  1  2  2  0
  2  3  1  0
  3  8  2  0
  8  7  1  0
  7  6  2  0
  6  1  1  0
  4  5  2  0
  5  9  1  0
  9 10  2  0
 10 12  1  0
 12 11  2  0
 11  4  1  0
M  END

$$$$
