No_4487-gen_results/8p0m/2024-11-27-11-27-31/
     RDKit          3D

 11 10  0  0  0  0  0  0  0  0999 V2000
  -28.0162   -0.8135   28.8779 C   0  0  0  0  0  0  0  0  0  0  0  0
  -27.0636   -0.1189   28.6079 C   0  0  0  0  0  0  0  0  0  0  0  0
  -27.0425    0.2440   27.4277 F   0  0  0  0  0  0  0  0  0  0  0  0
  -27.8750   -1.6429   29.9472 O   0  0  0  0  0  0  0  0  0  0  0  0
  -26.9677    1.1133   29.3596 F   0  0  0  0  0  0  0  0  0  0  0  0
  -25.8265   -0.6789   28.9000 F   0  0  0  0  0  0  0  0  0  0  0  0
  -29.1498   -0.7584   28.5151 F   0  0  0  0  0  0  0  0  0  0  0  0
  -28.5965   -2.9129   30.1055 C   0  0  0  0  0  0  0  0  0  0  0  0
  -27.6848   -4.0464   30.4321 C   0  0  0  0  0  0  0  0  0  0  0  0
  -28.3421   -5.1333   30.6552 O   0  0  0  0  0  0  0  0  0  0  0  0
  -26.4787   -4.0927   29.8623 O   0  0  0  0  0  0  0  0  0  0  0  0
  1  2  1  0
  2  3  1  0
  1  4  1  0
  2  5  1  0
  2  6  1  0
  1  7  1  0
  4  8  1  0
  8  9  1  0
  9 10  2  0
  9 11  1  0
M  END

$$$$
