No_4530-gen_results/8p0m/2024-11-27-11-27-31/
     RDKit          3D

 11 11  0  0  0  0  0  0  0  0999 V2000
  -28.0162   -0.8135   28.8779 C   0  0  0  0  0  0  0  0  0  0  0  0
  -28.4690   -0.7850   29.8287 C   0  0  0  0  0  0  0  0  0  0  0  0
  -27.0871    0.2903   28.6377 C   0  0  0  0  0  0  0  0  0  0  0  0
  -26.8317    1.2487   29.5869 C   0  0  0  0  0  0  0  0  0  0  0  0
  -28.3914    0.0801   31.0065 C   0  0  0  0  0  0  0  0  0  0  0  0
  -27.4940    1.1521   30.7841 C   0  0  0  0  0  0  0  0  0  0  0  0
  -26.4333    0.5572   27.5228 F   0  0  0  0  0  0  0  0  0  0  0  0
  -29.0199   -0.0856   32.1368 F   0  0  0  0  0  0  0  0  0  0  0  0
  -26.0026    2.3035   29.3687 O   0  0  0  0  0  0  0  0  0  0  0  0
  -25.1512    2.5639   28.4529 C   0  0  0  0  0  0  0  0  0  0  0  0
  -24.4332    3.4303   28.1547 C   0  0  0  0  0  0  0  0  0  0  0  0
  3  7  1  0
  5  8  1  0
  4  9  1  0
  9 10  1  0
 10 11  2  0
  1  2  2  0
  2  5  1  0
  5  6  2  0
  6  4  1  0
  4  3  2  0
  3  1  1  0
M  END

$$$$
