No_4424-gen_results/8p0m/2024-11-27-11-27-31/
     RDKit          3D

 28 31  0  0  0  0  0  0  0  0999 V2000
  -28.0162   -0.8135   28.8779 C   0  0  0  0  0  0  0  0  0  0  0  0
  -28.4690   -0.7850   29.8287 C   0  0  0  0  0  0  0  0  0  0  0  0
  -27.0871    0.2903   28.6377 C   0  0  0  0  0  0  0  0  0  0  0  0
  -26.8317    1.2487   29.5869 C   0  0  0  0  0  0  0  0  0  0  0  0
  -29.4442   -1.9481   30.1840 C   0  0  0  0  0  0  0  0  0  0  0  0
  -27.4956    1.1303   30.8222 C   0  0  0  0  0  0  0  0  0  0  0  0
  -28.3376    0.0364   31.0331 C   0  0  0  0  0  0  0  0  0  0  0  0
  -29.1546   -3.1425   30.2218 O   0  0  0  0  0  0  0  0  0  0  0  0
  -30.8704   -1.7104   30.0680 N   0  0  0  0  0  0  0  0  0  0  0  0
  -31.3655   -0.3928   29.8996 C   0  0  0  0  0  0  0  0  0  0  0  0
  -31.9665   -0.0646   28.7608 C   0  0  0  0  0  0  0  0  0  0  0  0
  -32.5660   -0.9527   27.9730 C   0  0  0  0  0  0  0  0  0  0  0  0
  -33.1176   -0.6890   26.7487 C   0  0  0  0  0  0  0  0  0  0  0  0
  -33.5037   -1.7380   25.8963 C   0  0  0  0  0  0  0  0  0  0  0  0
  -33.3495   -3.1266   26.3099 C   0  0  0  0  0  0  0  0  0  0  0  0
  -32.7373   -3.3721   27.5119 C   0  0  0  0  0  0  0  0  0  0  0  0
  -32.2626   -2.3003   28.3013 C   0  0  0  0  0  0  0  0  0  0  0  0
  -31.4499   -2.6290   29.3593 N   0  0  0  0  0  0  0  0  0  0  0  0
  -26.4177    0.4450   27.2848 C   0  0  0  0  0  0  0  0  0  0  0  0
  -25.2176    0.8261   27.1935 C   0  0  0  0  0  0  0  0  0  0  0  0
  -24.6434    1.2747   26.1250 C   0  0  0  0  0  0  0  0  0  0  0  0
  -25.2773    0.9499   24.8481 C   0  0  0  0  0  0  0  0  0  0  0  0
  -27.0689    0.2700   26.0757 C   0  0  0  0  0  0  0  0  0  0  0  0
  -26.5122    0.4875   24.9245 C   0  0  0  0  0  0  0  0  0  0  0  0
  -32.2743    1.4153   28.5360 C   0  0  0  0  0  0  0  0  0  0  0  0
  -31.6648    2.1962   28.2402 Br  0  0  0  0  0  0  0  0  0  0  0  0
  -33.8307    1.4585   28.5505 C   0  0  0  0  0  0  0  0  0  0  0  0
  -34.3743    1.9704   27.5842 O   0  0  0  0  0  0  0  0  0  0  0  0
  2  5  1  0
  5  8  2  0
  5  9  1  0
  9 10  1  0
 10 11  1  0
  9 18  1  0
 17 18  1  0
  3 19  1  0
 11 25  1  0
 25 26  1  0
 25 27  1  0
 27 28  2  0
 11 12  1  0
 12 13  2  0
 13 14  1  0
 14 15  2  0
 15 16  1  0
 16 17  2  0
 17 12  1  0
 19 20  2  0
 20 21  1  0
 21 22  2  0
 22 24  1  0
 24 23  2  0
 23 19  1  0
  1  2  2  0
  2  7  1  0
  7  6  2  0
  6  4  1  0
  4  3  2  0
  3  1  1  0
M  END

$$$$
