No_4517-gen_results/8p0m/2024-11-27-11-27-31/
     RDKit          3D

 21 22  0  0  0  0  0  0  0  0999 V2000
  -28.1229   -1.3353   28.4874 O   0  0  0  0  0  0  0  0  0  0  0  0
  -27.0637   -0.8242   28.8687 C   0  0  0  0  0  0  0  0  0  0  0  0
  -26.4446   -0.0097   28.8266 N   0  0  0  0  0  0  0  0  0  0  0  0
  -26.3514   -1.9045   29.8953 C   0  0  0  0  0  0  0  0  0  0  0  0
  -25.1383    0.4281   29.2592 C   0  0  0  0  0  0  0  0  0  0  0  0
  -24.4060    1.6464   28.9070 C   0  0  0  0  0  0  0  0  0  0  0  0
  -24.3990   -0.4582   30.1297 C   0  0  0  0  0  0  0  0  0  0  0  0
  -25.1124   -1.6454   30.4166 C   0  0  0  0  0  0  0  0  0  0  0  0
  -25.0940    2.8256   28.8513 C   0  0  0  0  0  0  0  0  0  0  0  0
  -23.0392    1.5748   28.4506 C   0  0  0  0  0  0  0  0  0  0  0  0
  -24.6963    3.7491   27.9208 N   0  0  0  0  0  0  0  0  0  0  0  0
  -22.2182    0.4681   28.6236 C   0  0  0  0  0  0  0  0  0  0  0  0
  -26.0064    3.2766   29.8242 C   0  0  0  0  0  0  0  0  0  0  0  0
  -25.9689    3.0826   31.0432 C   0  0  0  0  0  0  0  0  0  0  0  0
  -26.9620    3.4757   32.0476 C   0  0  0  0  0  0  0  0  0  0  0  0
  -26.9492    3.1276   33.3767 C   0  0  0  0  0  0  0  0  0  0  0  0
  -26.1080    2.0660   33.7186 C   0  0  0  0  0  0  0  0  0  0  0  0
  -25.2517    1.4519   32.8206 C   0  0  0  0  0  0  0  0  0  0  0  0
  -25.2274    1.8827   31.5232 C   0  0  0  0  0  0  0  0  0  0  0  0
  -20.8866    0.6374   28.1687 C   0  0  0  0  0  0  0  0  0  0  0  0
  -20.6555    1.7666   27.5285 N   0  0  0  0  0  0  0  0  0  0  0  0
  1  2  2  0
  2  3  1  0
  2  4  1  0
  3  5  1  0
  5  6  1  0
  5  7  1  0
  6  9  1  0
  6 10  1  0
  9 11  1  0
 10 12  2  3
  9 13  1  0
 12 20  1  0
 20 21  1  0
 13 14  1  0
  7  8  1  0
  8  4  1  0
 14 15  2  0
 15 16  1  0
 16 17  2  0
 17 18  1  0
 18 19  2  0
 19 14  1  0
M  END

$$$$
