No_4650-gen_results/8p0m/2024-11-27-11-27-31/
     RDKit          3D

 21 22  0  0  0  0  0  0  0  0999 V2000
  -28.0162   -0.8135   28.8779 C   0  0  0  0  0  0  0  0  0  0  0  0
  -28.4690   -0.7850   29.8287 C   0  0  0  0  0  0  0  0  0  0  0  0
  -26.5042   -0.7777   28.8766 C   0  0  0  0  0  0  0  0  0  0  0  0
  -25.8103   -0.8531   30.1028 C   0  0  0  0  0  0  0  0  0  0  0  0
  -27.9906   -0.8916   31.2257 C   0  0  0  0  0  0  0  0  0  0  0  0
  -26.6042   -0.8676   31.2652 C   0  0  0  0  0  0  0  0  0  0  0  0
  -24.3894   -0.8049   30.1638 C   0  0  0  0  0  0  0  0  0  0  0  0
  -23.6350   -0.8621   29.1472 C   0  0  0  0  0  0  0  0  0  0  0  0
  -22.1747   -0.6734   29.2132 C   0  0  0  0  0  0  0  0  0  0  0  0
  -23.7457   -0.7709   31.4942 C   0  0  0  0  0  0  0  0  0  0  0  0
  -22.2897   -0.6581   31.5825 C   0  0  0  0  0  0  0  0  0  0  0  0
  -21.5754   -0.5908   30.3772 C   0  0  0  0  0  0  0  0  0  0  0  0
  -30.0884   -0.7798   29.8382 C   0  0  0  0  0  0  0  0  0  0  0  0
  -30.6886    0.0879   30.5407 O   0  0  0  0  0  0  0  0  0  0  0  0
  -30.6552   -1.5351   29.0664 O   0  0  0  0  0  0  0  0  0  0  0  0
  -25.8322   -0.7449   27.7459 O   0  0  0  0  0  0  0  0  0  0  0  0
  -25.9527    0.4373   26.9378 C   0  0  0  0  0  0  0  0  0  0  0  0
  -25.6250    1.5415   27.4951 C   0  0  0  0  0  0  0  0  0  0  0  0
  -25.5502    2.5578   27.2412 C   0  0  0  0  0  0  0  0  0  0  0  0
  -25.2386    3.8342   28.0036 C   0  0  0  0  0  0  0  0  0  0  0  0
  -25.1234    3.5179   29.3119 N   0  0  0  0  0  0  0  0  0  0  0  0
  4  7  1  0
  2 13  1  0
 13 14  1  0
 13 15  2  0
  3 16  1  0
 16 17  1  0
 17 18  1  0
 18 19  2  3
 19 20  1  0
 20 21  2  0
  1  2  2  0
  2  5  1  0
  5  6  2  0
  6  4  1  0
  4  3  2  0
  3  1  1  0
  7  8  2  0
  8  9  1  0
  9 12  2  0
 12 11  1  0
 11 10  2  0
 10  7  1  0
M  END

$$$$
