No_4484-gen_results/8p0m/2024-11-27-11-27-31/
     RDKit          3D

 19 21  0  0  0  0  0  0  0  0999 V2000
  -28.0727   -1.2542   28.5316 F   0  0  0  0  0  0  0  0  0  0  0  0
  -27.3591   -0.3792   28.7224 C   0  0  0  0  0  0  0  0  0  0  0  0
  -27.7014    0.7608   29.1249 C   0  0  0  0  0  0  0  0  0  0  0  0
  -25.8844   -0.6918   28.4374 C   0  0  0  0  0  0  0  0  0  0  0  0
  -24.9212    0.3779   28.6013 C   0  0  0  0  0  0  0  0  0  0  0  0
  -26.6914    1.8696   29.2705 C   0  0  0  0  0  0  0  0  0  0  0  0
  -23.5038    0.1450   28.3431 C   0  0  0  0  0  0  0  0  0  0  0  0
  -25.3394    1.6688   29.0148 C   0  0  0  0  0  0  0  0  0  0  0  0
  -22.7735    1.1589   27.7276 C   0  0  0  0  0  0  0  0  0  0  0  0
  -23.2601    2.5673   27.9435 C   0  0  0  0  0  0  0  0  0  0  0  0
  -24.4509    2.7484   28.6837 C   0  0  0  0  0  0  0  0  0  0  0  0
  -21.4887    1.0974   27.4293 O   0  0  0  0  0  0  0  0  0  0  0  0
  -27.1565    3.2610   29.6892 C   0  0  0  0  0  0  0  0  0  0  0  0
  -26.7272    3.6976   30.8968 C   0  0  0  0  0  0  0  0  0  0  0  0
  -26.8210    5.0122   31.2105 C   0  0  0  0  0  0  0  0  0  0  0  0
  -27.5512    5.8719   30.3696 C   0  0  0  0  0  0  0  0  0  0  0  0
  -27.9347    5.4209   29.1241 C   0  0  0  0  0  0  0  0  0  0  0  0
  -27.6737    4.1011   28.7383 C   0  0  0  0  0  0  0  0  0  0  0  0
  -29.1914    0.9790   29.8140 Cl  0  0  0  0  0  0  0  0  0  0  0  0
  1  2  1  0
  9 12  1  0
  6 13  1  0
  3 19  1  0
 13 14  2  0
 14 15  1  0
 15 16  2  0
 16 17  1  0
 17 18  2  0
 18 13  1  0
  5  7  1  0
  7  9  2  0
  9 10  1  0
 10 11  2  0
 11  8  1  0
  2  3  2  0
  3  6  1  0
  6  8  2  0
  8  5  1  0
  5  4  2  0
  4  2  1  0
M  END

$$$$
