No_4552-gen_results/8p0m/2024-11-27-11-27-31/
     RDKit          3D

 13 13  0  0  0  0  0  0  0  0999 V2000
  -28.0162   -0.8135   28.8779 C   0  0  0  0  0  0  0  0  0  0  0  0
  -27.0636   -0.1189   28.6079 C   0  0  0  0  0  0  0  0  0  0  0  0
  -26.9287    1.1713   29.0083 C   0  0  0  0  0  0  0  0  0  0  0  0
  -27.9560    1.7411   29.7840 C   0  0  0  0  0  0  0  0  0  0  0  0
  -29.0569   -0.3271   29.7466 C   0  0  0  0  0  0  0  0  0  0  0  0
  -28.9828    0.9722   30.1516 C   0  0  0  0  0  0  0  0  0  0  0  0
  -25.8815   -0.6260   27.7945 C   0  0  0  0  0  0  0  0  0  0  0  0
  -25.4215    0.1302   26.7096 C   0  0  0  0  0  0  0  0  0  0  0  0
  -25.4008    1.4536   26.6605 C   0  0  0  0  0  0  0  0  0  0  0  0
  -24.6664    2.0771   25.9616 C   0  0  0  0  0  0  0  0  0  0  0  0
  -23.4884    1.3917   25.3765 C   0  0  0  0  0  0  0  0  0  0  0  0
  -22.6295    2.3036   24.7378 C   0  0  0  0  0  0  0  0  0  0  0  0
  -26.2278    2.1468   27.8497 C   0  0  0  0  0  0  0  0  0  0  0  0
  2  7  1  0
  7  8  2  3
  8  9  1  0
  9 10  2  3
 10 11  1  0
 11 12  1  0
  9 13  1  0
  1  2  2  0
  2  3  1  0
  3  4  2  0
  4  6  1  0
  6  5  2  0
  5  1  1  0
M  END

$$$$
