No_4816-gen_results/8p0m/2024-11-27-11-27-31/
     RDKit          3D

 12 13  0  0  0  0  0  0  0  0999 V2000
  -28.0162   -0.8135   28.8779 C   0  0  0  0  0  0  0  0  0  0  0  0
  -27.0636   -0.1190   28.6079 C   0  0  0  0  0  0  0  0  0  0  0  0
  -25.7647   -0.3897   29.0360 C   0  0  0  0  0  0  0  0  0  0  0  0
  -24.5516    0.4058   28.7646 C   0  0  0  0  0  0  0  0  0  0  0  0
  -24.6957    1.4480   27.7988 C   0  0  0  0  0  0  0  0  0  0  0  0
  -23.6098    2.2430   27.4348 C   0  0  0  0  0  0  0  0  0  0  0  0
  -22.3389    1.8613   27.9444 C   0  0  0  0  0  0  0  0  0  0  0  0
  -22.1755    0.8566   28.8491 C   0  0  0  0  0  0  0  0  0  0  0  0
  -23.3105    0.0894   29.2367 C   0  0  0  0  0  0  0  0  0  0  0  0
  -27.8932   -1.8900   29.8656 C   0  0  0  0  0  0  0  0  0  0  0  0
  -26.6527   -2.3282   30.2800 C   0  0  0  0  0  0  0  0  0  0  0  0
  -25.5393   -1.5481   29.9060 C   0  0  0  0  0  0  0  0  0  0  0  0
  3  4  1  0
  1  2  2  0
  2  3  1  0
  3 12  2  0
 12 11  1  0
 11 10  2  0
 10  1  1  0
  4  5  2  0
  5  6  1  0
  6  7  2  0
  7  8  1  0
  8  9  2  0
  9  4  1  0
M  END

$$$$
