No_454-gen_results/8p0m/2024-11-27-11-27-31/
     RDKit          3D

 33 36  0  0  0  0  0  0  0  0999 V2000
  -28.0162   -0.8135   28.8779 C   0  0  0  0  0  0  0  0  0  0  0  0
  -28.4690   -0.7850   29.8287 C   0  0  0  0  0  0  0  0  0  0  0  0
  -27.1356    0.2359   28.5352 C   0  0  0  0  0  0  0  0  0  0  0  0
  -26.8745    1.2825   29.3982 C   0  0  0  0  0  0  0  0  0  0  0  0
  -28.3613    0.1987   30.9244 C   0  0  0  0  0  0  0  0  0  0  0  0
  -27.5277    1.2234   30.6356 C   0  0  0  0  0  0  0  0  0  0  0  0
  -26.3987    0.2949   27.2279 C   0  0  0  0  0  0  0  0  0  0  0  0
  -25.0392    0.2356   27.3538 C   0  0  0  0  0  0  0  0  0  0  0  0
  -24.4371    0.0058   28.5831 C   0  0  0  0  0  0  0  0  0  0  0  0
  -22.9453    0.2645   28.6075 C   0  0  0  0  0  0  0  0  0  0  0  0
  -22.1225   -0.3188   29.5575 C   0  0  0  0  0  0  0  0  0  0  0  0
  -22.7751   -0.9743   30.6212 C   0  0  0  0  0  0  0  0  0  0  0  0
  -24.6992   -0.8579   29.6833 C   0  0  0  0  0  0  0  0  0  0  0  0
  -23.9190   -1.3319   30.6284 C   0  0  0  0  0  0  0  0  0  0  0  0
  -26.9940    1.1835   26.3236 C   0  0  0  0  0  0  0  0  0  0  0  0
  -26.8661    2.4083   26.4479 C   0  0  0  0  0  0  0  0  0  0  0  0
  -27.7406    0.5439   25.2432 C   0  0  0  0  0  0  0  0  0  0  0  0
  -28.8279    1.1873   24.6479 C   0  0  0  0  0  0  0  0  0  0  0  0
  -26.1633    3.1075   27.4898 C   0  0  0  0  0  0  0  0  0  0  0  0
  -25.8239    4.5269   27.3296 C   0  0  0  0  0  0  0  0  0  0  0  0
  -28.7216    2.6242   24.7145 C   0  0  0  0  0  0  0  0  0  0  0  0
  -27.7627    3.3165   25.5828 C   0  0  0  0  0  0  0  0  0  0  0  0
  -25.0099    2.6056   28.1082 C   0  0  0  0  0  0  0  0  0  0  0  0
  -27.1170    3.1274   28.7791 C   0  0  0  0  0  0  0  0  0  0  0  0
  -26.8904    4.0163   29.9400 C   0  0  0  0  0  0  0  0  0  0  0  0
  -28.7074    3.0448   28.5054 C   0  0  0  0  0  0  0  0  0  0  0  0
  -25.4551    1.5890   29.6925 O   0  0  0  0  0  0  0  0  0  0  0  0
  -24.1341    3.7176   28.8456 C   0  0  0  0  0  0  0  0  0  0  0  0
  -23.8785    2.3794   27.1342 C   0  0  0  0  0  0  0  0  0  0  0  0
  -25.2548    2.6476   30.7142 C   0  0  0  0  0  0  0  0  0  0  0  0
  -27.2039    4.3595   28.7422 N   0  0  0  0  0  0  0  0  0  0  0  0
  -28.4131    5.2425   28.7021 C   0  0  0  0  0  0  0  0  0  0  0  0
  -26.1669    5.1454   28.2026 C   0  0  0  0  0  0  0  0  0  0  0  0
  3  7  1  0
  7  8  2  3
  8  9  1  0
  7 15  1  0
 16 19  1  0
 19 20  1  0
 19 23  1  0
 19 24  1  0
 24 25  1  0
 24 26  1  0
  4 27  1  0
 23 28  1  0
 23 29  1  0
 27 30  1  0
 24 31  1  0
 31 32  1  0
 20 33  2  0
 31 33  1  0
 15 16  2  0
 16 22  1  0
 22 21  2  0
 21 18  1  0
 18 17  2  0
 17 15  1  0
  1  2  2  0
  2  5  1  0
  5  6  2  0
  6  4  1  0
  4  3  2  0
  3  1  1  0
  9 10  2  0
 10 11  1  0
 11 12  2  0
 12 14  1  0
 14 13  2  0
 13  9  1  0
M  END

$$$$
