No_4739-gen_results/8p0m/2024-11-27-11-27-31/
     RDKit          3D

 18 18  0  0  0  0  0  0  0  0999 V2000
  -28.0162   -0.8135   28.8779 C   0  0  0  0  0  0  0  0  0  0  0  0
  -27.0636   -0.1189   28.6079 C   0  0  0  0  0  0  0  0  0  0  0  0
  -25.7647   -0.3897   29.0360 C   0  0  0  0  0  0  0  0  0  0  0  0
  -24.5517    0.4058   28.7646 C   0  0  0  0  0  0  0  0  0  0  0  0
  -24.6957    1.4480   27.7988 C   0  0  0  0  0  0  0  0  0  0  0  0
  -25.9755    1.7250   27.3077 C   0  0  0  0  0  0  0  0  0  0  0  0
  -27.0718    1.0134   27.6535 C   0  0  0  0  0  0  0  0  0  0  0  0
  -29.2261   -0.0677   29.3149 C   0  0  0  0  0  0  0  0  0  0  0  0
  -30.4169   -0.7017   29.1423 N   0  0  0  0  0  0  0  0  0  0  0  0
  -23.4870    2.1874   27.4849 C   0  0  0  0  0  0  0  0  0  0  0  0
  -22.3410    1.8525   27.8473 O   0  0  0  0  0  0  0  0  0  0  0  0
  -23.5968    3.0890   26.4936 O   0  0  0  0  0  0  0  0  0  0  0  0
  -31.2125   -0.3062   28.0657 C   0  0  0  0  0  0  0  0  0  0  0  0
  -30.7601    0.4750   27.1645 C   0  0  0  0  0  0  0  0  0  0  0  0
  -30.6726    0.1625   25.8860 C   0  0  0  0  0  0  0  0  0  0  0  0
  -29.9310    0.8674   24.8683 C   0  0  0  0  0  0  0  0  0  0  0  0
  -29.5335    2.1892   25.1627 C   0  0  0  0  0  0  0  0  0  0  0  0
  -29.8879    2.7192   26.4586 C   0  0  0  0  0  0  0  0  0  0  0  0
  1  8  1  0
  8  9  1  0
  5 10  1  0
 10 11  2  0
 10 12  1  0
  9 13  1  0
 13 14  2  3
 14 15  1  0
 15 16  2  3
 16 17  1  0
 17 18  2  0
  1  2  1  0
  2  3  2  0
  3  4  1  0
  4  5  2  0
  5  6  1  0
  6  7  2  0
  7  2  1  0
M  END

$$$$
