No_4292-gen_results/8p0m/2024-11-27-11-27-31/
     RDKit          3D

 21 22  0  0  0  0  0  0  0  0999 V2000
  -28.0162   -0.8135   28.8779 C   0  0  0  0  0  0  0  0  0  0  0  0
  -27.0636   -0.1189   28.6079 C   0  0  0  0  0  0  0  0  0  0  0  0
  -27.0010    0.6913   27.4910 C   0  0  0  0  0  0  0  0  0  0  0  0
  -25.8548    1.4825   27.0830 C   0  0  0  0  0  0  0  0  0  0  0  0
  -24.6901    1.4526   27.8807 C   0  0  0  0  0  0  0  0  0  0  0  0
  -24.7379    0.6010   29.0416 C   0  0  0  0  0  0  0  0  0  0  0  0
  -25.8234   -0.1688   29.3887 C   0  0  0  0  0  0  0  0  0  0  0  0
  -28.0376   -1.5350   30.2052 C   0  0  0  0  0  0  0  0  0  0  0  0
  -29.1134   -2.2895   30.5520 N   0  0  0  0  0  0  0  0  0  0  0  0
  -27.0449   -1.6411   31.0144 O   0  0  0  0  0  0  0  0  0  0  0  0
  -29.1344   -3.2334   31.6603 C   0  0  0  0  0  0  0  0  0  0  0  0
  -23.5304    2.2299   27.5668 C   0  0  0  0  0  0  0  0  0  0  0  0
  -22.5093    2.2181   28.3547 N   0  0  0  0  0  0  0  0  0  0  0  0
  -23.5064    2.8591   26.4540 O   0  0  0  0  0  0  0  0  0  0  0  0
  -30.3790   -2.2000   29.8532 C   0  0  0  0  0  0  0  0  0  0  0  0
  -31.3525   -3.2662   30.1837 C   0  0  0  0  0  0  0  0  0  0  0  0
  -29.9955   -4.2870   31.7354 C   0  0  0  0  0  0  0  0  0  0  0  0
  -31.1973   -4.1694   31.1171 C   0  0  0  0  0  0  0  0  0  0  0  0
  -32.6040   -3.1622   29.3802 C   0  0  0  0  0  0  0  0  0  0  0  0
  -32.7372   -3.4390   28.2950 C   0  0  0  0  0  0  0  0  0  0  0  0
  -33.9411   -3.3093   27.4473 C   0  0  0  0  0  0  0  0  0  0  0  0
  1  2  1  0
  1  8  1  0
  8  9  1  0
  8 10  2  0
  9 11  1  0
  5 12  1  0
 12 13  1  0
 12 14  2  0
  9 15  1  0
 15 16  1  0
 17 18  1  0
 16 19  1  0
 19 20  2  3
 20 21  1  0
 11 17  1  0
 18 16  1  0
  2  3  2  0
  3  4  1  0
  4  5  2  0
  5  6  1  0
  6  7  2  0
  7  2  1  0
M  END

$$$$
