No_4399-gen_results/8p0m/2024-11-27-11-27-31/
     RDKit          3D

 35 37  0  0  0  0  0  0  0  0999 V2000
  -28.0162   -0.8135   28.8779 C   0  0  0  0  0  0  0  0  0  0  0  0
  -27.0636   -0.1190   28.6079 C   0  0  0  0  0  0  0  0  0  0  0  0
  -26.8756    1.1325   28.9134 C   0  0  0  0  0  0  0  0  0  0  0  0
  -25.6883    1.9515   28.5672 C   0  0  0  0  0  0  0  0  0  0  0  0
  -24.6394    1.2834   27.8753 C   0  0  0  0  0  0  0  0  0  0  0  0
  -24.8181   -0.0802   27.6166 C   0  0  0  0  0  0  0  0  0  0  0  0
  -25.9311   -0.7717   27.9696 C   0  0  0  0  0  0  0  0  0  0  0  0
  -29.2149   -0.1385   29.0986 C   0  0  0  0  0  0  0  0  0  0  0  0
  -29.2032    1.2244   29.3900 C   0  0  0  0  0  0  0  0  0  0  0  0
  -28.0353    1.9224   29.1787 C   0  0  0  0  0  0  0  0  0  0  0  0
  -23.3504    1.8716   27.5974 C   0  0  0  0  0  0  0  0  0  0  0  0
  -22.9828    2.5994   26.7534 N   0  0  0  0  0  0  0  0  0  0  0  0
  -22.3057    1.6039   28.5622 N   0  0  0  0  0  0  0  0  0  0  0  0
  -23.9726    2.8562   25.7411 C   0  0  0  0  0  0  0  0  0  0  0  0
  -30.4392    1.9032   29.8662 C   0  0  0  0  0  0  0  0  0  0  0  0
  -30.4950    2.4539   30.8571 O   0  0  0  0  0  0  0  0  0  0  0  0
  -31.2963    2.0467   28.8716 O   0  0  0  0  0  0  0  0  0  0  0  0
  -25.5470    3.3579   28.8906 C   0  0  0  0  0  0  0  0  0  0  0  0
  -25.2552    3.7300   30.2005 C   0  0  0  0  0  0  0  0  0  0  0  0
  -25.8513    4.3170   27.9027 C   0  0  0  0  0  0  0  0  0  0  0  0
  -26.0160    4.2660   30.9367 N   0  0  0  0  0  0  0  0  0  0  0  0
  -25.8254    4.4647   32.2173 C   0  0  0  0  0  0  0  0  0  0  0  0
  -27.2090    4.9712   30.4706 C   0  0  0  0  0  0  0  0  0  0  0  0
  -24.8351    4.8662   32.8493 C   0  0  0  0  0  0  0  0  0  0  0  0
  -23.7435    4.5887   32.2977 O   0  0  0  0  0  0  0  0  0  0  0  0
  -27.1326    5.9583   29.5350 C   0  0  0  0  0  0  0  0  0  0  0  0
  -26.0680    5.6315   28.1700 C   0  0  0  0  0  0  0  0  0  0  0  0
  -27.9326    7.0637   29.3364 C   0  0  0  0  0  0  0  0  0  0  0  0
  -28.6313    7.3453   30.1991 O   0  0  0  0  0  0  0  0  0  0  0  0
  -27.7389    7.8140   28.3725 O   0  0  0  0  0  0  0  0  0  0  0  0
  -24.8419    5.7367   33.8081 O   0  0  0  0  0  0  0  0  0  0  0  0
  -26.3148    3.1467   33.0734 C   0  0  0  0  0  0  0  0  0  0  0  0
  -26.9084    3.3089   34.2732 C   0  0  0  0  0  0  0  0  0  0  0  0
  -27.3310    2.1460   34.9311 C   0  0  0  0  0  0  0  0  0  0  0  0
  -27.5612    1.2812   34.4323 C   0  0  0  0  0  0  0  0  0  0  0  0
  5 11  1  0
 11 12  2  3
 11 13  1  0
 12 14  1  0
  9 15  1  0
 15 16  2  0
 15 17  1  0
  4 18  1  0
 18 19  1  0
 18 20  1  0
 19 21  1  0
 21 22  1  0
 21 23  1  0
 22 24  1  0
 24 25  1  0
 23 26  1  0
 20 27  1  0
 26 27  1  0
 26 28  1  0
 28 29  2  0
 28 30  1  0
 24 31  2  0
 22 32  1  0
 32 33  2  3
 33 34  1  0
 34 35  2  0
  3  4  1  0
  4  5  2  0
  5  6  1  0
  6  7  2  0
  7  2  1  0
  1  2  2  0
  2  3  1  0
  3 10  2  0
 10  9  1  0
  9  8  2  0
  8  1  1  0
M  END

$$$$
