No_4802-gen_results/8p0m/2024-11-27-11-27-31/
     RDKit          3D

 15 16  0  0  0  0  0  0  0  0999 V2000
  -28.0162   -0.8135   28.8779 C   0  0  0  0  0  0  0  0  0  0  0  0
  -28.4690   -0.7850   29.8287 C   0  0  0  0  0  0  0  0  0  0  0  0
  -27.1356    0.2359   28.5352 C   0  0  0  0  0  0  0  0  0  0  0  0
  -26.3351    0.2900   27.2835 C   0  0  0  0  0  0  0  0  0  0  0  0
  -29.3807   -1.9134   30.3549 C   0  0  0  0  0  0  0  0  0  0  0  0
  -28.2016    0.2191   30.8629 C   0  0  0  0  0  0  0  0  0  0  0  0
  -27.3787    1.2817   30.6151 C   0  0  0  0  0  0  0  0  0  0  0  0
  -26.7396    1.2931   29.4287 C   0  0  0  0  0  0  0  0  0  0  0  0
  -25.9348    1.0830   26.6240 C   0  0  0  0  0  0  0  0  0  0  0  0
  -26.0743    2.4685   27.1771 C   0  0  0  0  0  0  0  0  0  0  0  0
  -25.4740    3.6367   26.5458 C   0  0  0  0  0  0  0  0  0  0  0  0
  -27.0612    3.0188   27.9486 C   0  0  0  0  0  0  0  0  0  0  0  0
  -26.5102    4.2325   28.3450 C   0  0  0  0  0  0  0  0  0  0  0  0
  -25.6116    4.8001   27.3796 C   0  0  0  0  0  0  0  0  0  0  0  0
  -30.1277   -1.7532   31.2211 N   0  0  0  0  0  0  0  0  0  0  0  0
  3  4  1  0
  2  5  1  0
  4  9  2  3
  9 10  1  0
 10 11  1  0
 10 12  1  0
 12 13  2  0
 11 14  2  0
 13 14  1  0
  5 15  1  0
  1  2  2  0
  2  6  1  0
  6  7  2  0
  7  8  1  0
  8  3  2  0
  3  1  1  0
M  END

$$$$
