No_4830-gen_results/8p0m/2024-11-27-11-27-31/
     RDKit          3D

 24 27  0  0  0  0  0  0  0  0999 V2000
  -28.1229   -1.3353   28.4874 O   0  0  0  0  0  0  0  0  0  0  0  0
  -27.0637   -0.8242   28.8687 C   0  0  0  0  0  0  0  0  0  0  0  0
  -26.9592    0.0926   29.7582 C   0  0  0  0  0  0  0  0  0  0  0  0
  -25.8472   -1.5491   28.6589 N   0  0  0  0  0  0  0  0  0  0  0  0
  -27.8673    0.9590   30.1109 C   0  0  0  0  0  0  0  0  0  0  0  0
  -24.5647   -1.1378   29.0392 C   0  0  0  0  0  0  0  0  0  0  0  0
  -24.4713   -0.0100   29.7529 C   0  0  0  0  0  0  0  0  0  0  0  0
  -25.5769    0.6844   30.1567 C   0  0  0  0  0  0  0  0  0  0  0  0
  -28.7254    1.4587   29.3292 C   0  0  0  0  0  0  0  0  0  0  0  0
  -28.4930    1.5336   28.0179 C   0  0  0  0  0  0  0  0  0  0  0  0
  -29.4924    1.9730   27.0404 C   0  0  0  0  0  0  0  0  0  0  0  0
  -30.6828    2.4468   27.5594 C   0  0  0  0  0  0  0  0  0  0  0  0
  -30.9399    2.4007   28.8957 C   0  0  0  0  0  0  0  0  0  0  0  0
  -30.0332    1.9416   29.7995 C   0  0  0  0  0  0  0  0  0  0  0  0
  -28.1389    0.9943   31.6356 C   0  0  0  0  0  0  0  0  0  0  0  0
  -27.7471    1.9931   32.2938 N   0  0  0  0  0  0  0  0  0  0  0  0
  -27.2961    3.0308   31.9879 C   0  0  0  0  0  0  0  0  0  0  0  0
  -27.3120    3.6169   30.8780 C   0  0  0  0  0  0  0  0  0  0  0  0
  -26.5692    4.8721   30.5638 C   0  0  0  0  0  0  0  0  0  0  0  0
  -25.9146    5.4421   31.5795 C   0  0  0  0  0  0  0  0  0  0  0  0
  -25.8315    4.8522   32.8612 C   0  0  0  0  0  0  0  0  0  0  0  0
  -26.4499    3.7345   33.0847 C   0  0  0  0  0  0  0  0  0  0  0  0
  -27.3197    1.7567   33.8353 C   0  0  0  0  0  0  0  0  0  0  0  0
  -26.5394    2.8383   34.1923 C   0  0  0  0  0  0  0  0  0  0  0  0
  1  2  2  0
  2  3  1  0
  2  4  1  0
  3  5  1  0
  6  7  1  0
  3  8  1  0
  5  9  1  0
  5 15  1  0
 15 16  1  0
 16 17  1  0
 16 23  1  0
 22 24  1  0
 23 24  1  0
  8  7  1  0
  6  4  1  0
 17 18  2  0
 18 19  1  0
 19 20  2  0
 20 21  1  0
 21 22  2  0
 22 17  1  0
  9 10  2  0
 10 11  1  0
 11 12  2  0
 12 13  1  0
 13 14  2  0
 14  9  1  0
M  END

$$$$
