No_4504-gen_results/8p0m/2024-11-27-11-27-31/
     RDKit          3D

 12 13  0  0  0  0  0  0  0  0999 V2000
  -28.0162   -0.8135   28.8779 C   0  0  0  0  0  0  0  0  0  0  0  0
  -28.4690   -0.7850   29.8287 C   0  0  0  0  0  0  0  0  0  0  0  0
  -28.1816    0.4277   28.1134 C   0  0  0  0  0  0  0  0  0  0  0  0
  -29.1844    0.4167   27.2947 O   0  0  0  0  0  0  0  0  0  0  0  0
  -27.0203    1.1421   27.6878 N   0  0  0  0  0  0  0  0  0  0  0  0
  -25.8322    1.1403   28.4224 C   0  0  0  0  0  0  0  0  0  0  0  0
  -24.8721    1.6889   28.1721 C   0  0  0  0  0  0  0  0  0  0  0  0
  -23.5437    1.4671   28.7888 C   0  0  0  0  0  0  0  0  0  0  0  0
  -23.4705    0.5105   29.7741 C   0  0  0  0  0  0  0  0  0  0  0  0
  -24.6189   -0.2206   30.0715 C   0  0  0  0  0  0  0  0  0  0  0  0
  -25.7367    0.0260   29.4033 C   0  0  0  0  0  0  0  0  0  0  0  0
  -26.7184   -1.1821   28.8025 N   0  0  0  0  0  0  0  0  0  0  0  0
  1  2  1  0
  1  3  1  0
  3  4  2  0
  3  5  1  0
  5  6  1  0
  1 12  1  0
 11 12  1  0
  6  7  2  0
  7  8  1  0
  8  9  2  0
  9 10  1  0
 10 11  2  0
 11  6  1  0
M  END

$$$$
