No_498-gen_results/8p0m/2024-11-27-11-27-31/
     RDKit          3D

 13 13  0  0  0  0  0  0  0  0999 V2000
  -28.0162   -0.8135   28.8779 C   0  0  0  0  0  0  0  0  0  0  0  0
  -28.4690   -0.7850   29.8287 C   0  0  0  0  0  0  0  0  0  0  0  0
  -26.5042   -0.7777   28.8766 C   0  0  0  0  0  0  0  0  0  0  0  0
  -25.7622   -0.0022   27.9705 C   0  0  0  0  0  0  0  0  0  0  0  0
  -25.2031    1.1747   28.5115 C   0  0  0  0  0  0  0  0  0  0  0  0
  -25.5666    2.2906   28.2711 C   0  0  0  0  0  0  0  0  0  0  0  0
  -28.0041   -1.5442   30.9787 C   0  0  0  0  0  0  0  0  0  0  0  0
  -26.6070   -1.7006   31.0737 C   0  0  0  0  0  0  0  0  0  0  0  0
  -25.8052   -1.3042   30.0126 C   0  0  0  0  0  0  0  0  0  0  0  0
  -23.8553    0.9499   29.1396 C   0  0  0  0  0  0  0  0  0  0  0  0
  -24.9550    3.5552   28.4780 C   0  0  0  0  0  0  0  0  0  0  0  0
  -23.2093   -0.3105   29.3208 C   0  0  0  0  0  0  0  0  0  0  0  0
  -25.6543    4.7441   28.2810 C   0  0  0  0  0  0  0  0  0  0  0  0
  3  4  1  0
  4  5  1  0
  5  6  1  0
  5 10  1  0
  6 11  2  3
 10 12  1  0
 11 13  1  0
  1  2  2  0
  2  7  1  0
  7  8  2  0
  8  9  1  0
  9  3  2  0
  3  1  1  0
M  END

$$$$
