No_4876-gen_results/8p0m/2024-11-27-11-27-31/
     RDKit          3D

 23 24  0  0  0  0  0  0  0  0999 V2000
  -28.0162   -0.8135   28.8779 C   0  0  0  0  0  0  0  0  0  0  0  0
  -27.0636   -0.1189   28.6079 C   0  0  0  0  0  0  0  0  0  0  0  0
  -25.7923   -0.4302   29.0761 C   0  0  0  0  0  0  0  0  0  0  0  0
  -25.5756   -1.5654   29.9363 C   0  0  0  0  0  0  0  0  0  0  0  0
  -26.7354   -2.3004   30.2173 C   0  0  0  0  0  0  0  0  0  0  0  0
  -27.9184   -1.9537   29.7629 C   0  0  0  0  0  0  0  0  0  0  0  0
  -27.1057    1.1023   27.7593 C   0  0  0  0  0  0  0  0  0  0  0  0
  -26.1219    1.4820   27.0232 C   0  0  0  0  0  0  0  0  0  0  0  0
  -26.0928    2.6187   26.1808 C   0  0  0  0  0  0  0  0  0  0  0  0
  -27.3249    3.3089   25.9857 C   0  0  0  0  0  0  0  0  0  0  0  0
  -28.4319    2.8713   26.6578 C   0  0  0  0  0  0  0  0  0  0  0  0
  -28.3674    1.7616   27.5562 C   0  0  0  0  0  0  0  0  0  0  0  0
  -28.9737   -2.7096   30.1649 O   0  0  0  0  0  0  0  0  0  0  0  0
  -28.8940   -3.9873   30.6707 C   0  0  0  0  0  0  0  0  0  0  0  0
  -29.7960   -4.2524   31.7148 C   0  0  0  0  0  0  0  0  0  0  0  0
  -29.7171   -5.4148   32.1826 O   0  0  0  0  0  0  0  0  0  0  0  0
  -30.6443   -3.3963   32.1612 N   0  0  0  0  0  0  0  0  0  0  0  0
  -31.5641   -3.6855   33.2538 C   0  0  0  0  0  0  0  0  0  0  0  0
  -32.4995   -2.8554   33.2850 C   0  0  0  0  0  0  0  0  0  0  0  0
  -32.5227   -1.6612   32.5788 C   0  0  0  0  0  0  0  0  0  0  0  0
  -31.5770   -1.4247   31.5657 C   0  0  0  0  0  0  0  0  0  0  0  0
  -30.6628   -2.2464   31.3836 C   0  0  0  0  0  0  0  0  0  0  0  0
  -29.6849   -1.6068   31.3869 O   0  0  0  0  0  0  0  0  0  0  0  0
  2  7  1  0
  6 13  1  0
 13 14  1  0
 14 15  1  0
 15 16  2  0
 15 17  1  0
 17 18  1  0
 18 19  2  3
 19 20  1  0
 20 21  2  3
 21 22  1  0
 22 23  1  0
  1  2  2  0
  2  3  1  0
  3  4  2  0
  4  5  1  0
  5  6  2  0
  6  1  1  0
  7  8  2  0
  8  9  1  0
  9 10  2  0
 10 11  1  0
 11 12  2  0
 12  7  1  0
M  END

$$$$
