No_4745-gen_results/8p0m/2024-11-27-11-27-31/
     RDKit          3D

 27 30  0  0  0  0  0  0  0  0999 V2000
  -28.0162   -0.8135   28.8779 C   0  0  0  0  0  0  0  0  0  0  0  0
  -27.0636   -0.1190   28.6079 C   0  0  0  0  0  0  0  0  0  0  0  0
  -26.9287    1.1713   29.0083 C   0  0  0  0  0  0  0  0  0  0  0  0
  -25.7702    2.0341   28.6884 C   0  0  0  0  0  0  0  0  0  0  0  0
  -24.7141    1.4431   27.9188 C   0  0  0  0  0  0  0  0  0  0  0  0
  -24.8590    0.0783   27.5836 C   0  0  0  0  0  0  0  0  0  0  0  0
  -25.9647   -0.6606   27.9164 C   0  0  0  0  0  0  0  0  0  0  0  0
  -28.7025   -0.6427   30.0750 N   0  0  0  0  0  0  0  0  0  0  0  0
  -29.7976   -1.3633   30.5080 C   0  0  0  0  0  0  0  0  0  0  0  0
  -30.3922   -1.0328   31.7403 C   0  0  0  0  0  0  0  0  0  0  0  0
  -30.2817   -2.3089   29.9318 O   0  0  0  0  0  0  0  0  0  0  0  0
  -23.5350    2.1825   27.5674 C   0  0  0  0  0  0  0  0  0  0  0  0
  -22.4903    1.6648   27.0324 N   0  0  0  0  0  0  0  0  0  0  0  0
  -23.7542    3.4373   27.2904 O   0  0  0  0  0  0  0  0  0  0  0  0
  -30.0030   -0.1110   32.5615 C   0  0  0  0  0  0  0  0  0  0  0  0
  -28.8288    0.6253   32.1301 C   0  0  0  0  0  0  0  0  0  0  0  0
  -28.1901    0.3936   30.9115 C   0  0  0  0  0  0  0  0  0  0  0  0
  -27.5482    1.5133   30.2621 C   0  0  0  0  0  0  0  0  0  0  0  0
  -28.5325    2.6814   30.0984 C   0  0  0  0  0  0  0  0  0  0  0  0
  -26.4617    2.0139   31.3976 C   0  0  0  0  0  0  0  0  0  0  0  0
  -25.6166    1.2933   31.9206 C   0  0  0  0  0  0  0  0  0  0  0  0
  -26.7640    3.3645   31.8952 C   0  0  0  0  0  0  0  0  0  0  0  0
  -28.5081    3.9440   30.5589 C   0  0  0  0  0  0  0  0  0  0  0  0
  -27.5640    4.2860   31.5146 C   0  0  0  0  0  0  0  0  0  0  0  0
  -25.5598    3.7267   32.8378 C   0  0  0  0  0  0  0  0  0  0  0  0
  -25.1365    4.6866   32.6132 F   0  0  0  0  0  0  0  0  0  0  0  0
  -24.6511    2.7265   32.8815 F   0  0  0  0  0  0  0  0  0  0  0  0
  1  2  1  0
  1  8  1  0
  8  9  1  0
  9 10  1  0
  9 11  2  0
  5 12  1  0
 12 13  1  0
 12 14  2  0
 10 15  1  0
  8 17  1  0
 16 17  1  0
  3 18  1  0
 17 18  1  0
 18 19  1  0
 18 20  1  0
 20 21  1  0
 20 22  1  0
 22 24  1  0
 23 24  1  0
 22 25  1  0
 25 26  1  0
 25 27  1  0
 15 16  1  0
 19 23  1  0
  2  7  2  0
  7  6  1  0
  6  5  2  0
  5  4  1  0
  4  3  2  0
  3  2  1  0
M  END

$$$$
