No_4454-gen_results/8p0m/2024-11-27-11-27-31/
     RDKit          3D

 15 16  0  0  0  0  0  0  0  0999 V2000
  -28.0162   -0.8135   28.8779 C   0  0  0  0  0  0  0  0  0  0  0  0
  -28.4690   -0.7850   29.8287 C   0  0  0  0  0  0  0  0  0  0  0  0
  -28.1816    0.4277   28.1134 C   0  0  0  0  0  0  0  0  0  0  0  0
  -28.9841    1.4155   28.5154 C   0  0  0  0  0  0  0  0  0  0  0  0
  -29.3802    0.1384   30.4612 C   0  0  0  0  0  0  0  0  0  0  0  0
  -29.5415    1.2736   29.7242 C   0  0  0  0  0  0  0  0  0  0  0  0
  -27.4586    0.4934   26.7701 C   0  0  0  0  0  0  0  0  0  0  0  0
  -26.1290    0.3456   26.7317 N   0  0  0  0  0  0  0  0  0  0  0  0
  -25.2521    1.1879   27.3425 C   0  0  0  0  0  0  0  0  0  0  0  0
  -25.2890    2.3791   27.2170 C   0  0  0  0  0  0  0  0  0  0  0  0
  -24.3666    3.2607   27.9369 C   0  0  0  0  0  0  0  0  0  0  0  0
  -24.1371    0.5650   28.1232 C   0  0  0  0  0  0  0  0  0  0  0  0
  -23.2003    1.3356   28.7363 C   0  0  0  0  0  0  0  0  0  0  0  0
  -23.3256    2.7563   28.5680 C   0  0  0  0  0  0  0  0  0  0  0  0
  -28.0572    0.8032   25.7817 O   0  0  0  0  0  0  0  0  0  0  0  0
  3  7  1  0
  7  8  1  0
  8  9  1  0
  7 15  2  0
  9 10  2  0
 10 11  1  0
 11 14  2  0
 14 13  1  0
 13 12  2  0
 12  9  1  0
  1  2  2  0
  2  5  1  0
  5  6  2  0
  6  4  1  0
  4  3  2  0
  3  1  1  0
M  END

$$$$
