No_4516-gen_results/8p0m/2024-11-27-11-27-31/
     RDKit          3D

 27 31  0  0  0  0  0  0  0  0999 V2000
  -28.0162   -0.8135   28.8779 C   0  0  0  0  0  0  0  0  0  0  0  0
  -28.4690   -0.7850   29.8287 C   0  0  0  0  0  0  0  0  0  0  0  0
  -27.1356    0.2359   28.5352 C   0  0  0  0  0  0  0  0  0  0  0  0
  -26.3351    0.2900   27.2835 C   0  0  0  0  0  0  0  0  0  0  0  0
  -28.3692    0.1957   30.9236 C   0  0  0  0  0  0  0  0  0  0  0  0
  -27.5158    1.2655   30.6540 C   0  0  0  0  0  0  0  0  0  0  0  0
  -26.8411    1.2942   29.4761 C   0  0  0  0  0  0  0  0  0  0  0  0
  -25.3614    0.7751   26.9672 C   0  0  0  0  0  0  0  0  0  0  0  0
  -24.7237    0.7751   25.7100 C   0  0  0  0  0  0  0  0  0  0  0  0
  -25.4432    0.0408   24.6790 C   0  0  0  0  0  0  0  0  0  0  0  0
  -26.7894   -0.5154   26.2130 C   0  0  0  0  0  0  0  0  0  0  0  0
  -26.4547   -0.5211   25.0099 C   0  0  0  0  0  0  0  0  0  0  0  0
  -25.9458    2.3845   29.1699 C   0  0  0  0  0  0  0  0  0  0  0  0
  -26.1770    3.5596   29.7019 C   0  0  0  0  0  0  0  0  0  0  0  0
  -25.5205    4.7580   29.1210 C   0  0  0  0  0  0  0  0  0  0  0  0
  -25.7586    4.9863   27.9499 C   0  0  0  0  0  0  0  0  0  0  0  0
  -25.1043    6.1396   27.3465 C   0  0  0  0  0  0  0  0  0  0  0  0
  -24.6534    6.0498   26.0376 C   0  0  0  0  0  0  0  0  0  0  0  0
  -24.5043    4.7615   25.5305 C   0  0  0  0  0  0  0  0  0  0  0  0
  -25.0634    3.6349   26.0763 C   0  0  0  0  0  0  0  0  0  0  0  0
  -25.5579    3.7786   27.3959 C   0  0  0  0  0  0  0  0  0  0  0  0
  -25.8359    2.7552   27.9692 N   0  0  0  0  0  0  0  0  0  0  0  0
  -25.4754    1.7222   26.9475 C   0  0  0  0  0  0  0  0  0  0  0  0
  -25.0272    2.6528   26.0819 F   0  0  0  0  0  0  0  0  0  0  0  0
  -26.6719    1.9753   26.3539 F   0  0  0  0  0  0  0  0  0  0  0  0
  -28.0489   -1.0117   26.5119 O   0  0  0  0  0  0  0  0  0  0  0  0
  -24.2709    1.7535   27.8483 O   0  0  0  0  0  0  0  0  0  0  0  0
  3  4  1  0
  7 13  1  0
 13 14  1  0
 15 16  1  0
 13 22  1  0
 21 22  1  0
  8 23  1  0
 22 23  1  0
 20 24  1  0
 23 25  1  0
 11 26  1  0
 23 27  1  0
 14 15  1  0
  4  8  2  0
  8  9  1  0
  9 10  2  0
 10 12  1  0
 12 11  2  0
 11  4  1  0
  1  2  2  0
  2  5  1  0
  5  6  2  0
  6  7  1  0
  7  3  2  0
  3  1  1  0
 16 17  2  0
 17 18  1  0
 18 19  2  0
 19 20  1  0
 20 21  2  0
 21 16  1  0
M  END

$$$$
