No_4731-gen_results/8p0m/2024-11-27-11-27-31/
     RDKit          3D

 16 18  0  0  0  0  0  0  0  0999 V2000
  -28.0162   -0.8135   28.8779 C   0  0  0  0  0  0  0  0  0  0  0  0
  -28.4690   -0.7850   29.8287 C   0  0  0  0  0  0  0  0  0  0  0  0
  -27.0871    0.2903   28.6377 C   0  0  0  0  0  0  0  0  0  0  0  0
  -26.2516    0.4114   27.4223 C   0  0  0  0  0  0  0  0  0  0  0  0
  -28.3913    0.1041   30.9805 C   0  0  0  0  0  0  0  0  0  0  0  0
  -27.5332    1.1666   30.7866 C   0  0  0  0  0  0  0  0  0  0  0  0
  -26.8281    1.2557   29.6454 C   0  0  0  0  0  0  0  0  0  0  0  0
  -25.7329    1.6893   27.1546 C   0  0  0  0  0  0  0  0  0  0  0  0
  -24.6744    1.7805   26.3311 C   0  0  0  0  0  0  0  0  0  0  0  0
  -23.8933    0.7474   25.9464 C   0  0  0  0  0  0  0  0  0  0  0  0
  -25.0867   -0.5647   27.3328 C   0  0  0  0  0  0  0  0  0  0  0  0
  -24.1213   -0.3875   26.4526 N   0  0  0  0  0  0  0  0  0  0  0  0
  -27.0783    0.2250   26.1589 C   0  0  0  0  0  0  0  0  0  0  0  0
  -27.6271    1.3322   25.5928 C   0  0  0  0  0  0  0  0  0  0  0  0
  -26.6961    2.6703   26.8959 N   0  0  0  0  0  0  0  0  0  0  0  0
  -27.4951    2.5486   25.8255 C   0  0  0  0  0  0  0  0  0  0  0  0
  3  4  1  0
  4  8  1  0
  9 10  1  0
  4 11  1  0
 10 12  1  0
  4 13  1  0
 13 14  1  0
  8 15  1  0
 14 16  1  0
  8  9  1  0
 12 11  1  0
 15 16  1  0
  1  2  2  0
  2  5  1  0
  5  6  2  0
  6  7  1  0
  7  3  2  0
  3  1  1  0
M  END

$$$$
