No_4081-gen_results/8p0m/2024-11-27-11-27-31/
     RDKit          3D

 10 10  0  0  0  0  0  0  0  0999 V2000
  -28.1229   -1.3353   28.4874 O   0  0  0  0  0  0  0  0  0  0  0  0
  -27.0637   -0.8242   28.8687 C   0  0  0  0  0  0  0  0  0  0  0  0
  -27.0246    0.1877   29.7358 C   0  0  0  0  0  0  0  0  0  0  0  0
  -27.8240    0.5330   30.2854 C   0  0  0  0  0  0  0  0  0  0  0  0
  -25.9291   -1.3440   28.2220 O   0  0  0  0  0  0  0  0  0  0  0  0
  -25.5037    0.4866   29.9314 C   0  0  0  0  0  0  0  0  0  0  0  0
  -25.1736    1.6239   30.7439 C   0  0  0  0  0  0  0  0  0  0  0  0
  -27.5929    1.7824   31.3098 C   0  0  0  0  0  0  0  0  0  0  0  0
  -26.2735    2.2042   31.4847 C   0  0  0  0  0  0  0  0  0  0  0  0
  -23.6312    2.1469   31.0141 Cl  0  0  0  0  0  0  0  0  0  0  0  0
  1  2  1  0
  2  3  1  0
  2  5  2  0
  7 10  1  0
  3  4  2  0
  4  8  1  0
  8  9  2  0
  9  7  1  0
  7  6  2  0
  6  3  1  0
M  END

$$$$
