No_4600-gen_results/8p0m/2024-11-27-11-27-31/
     RDKit          3D

 14 15  0  0  0  0  0  0  0  0999 V2000
  -28.0162   -0.8135   28.8779 C   0  0  0  0  0  0  0  0  0  0  0  0
  -27.0636   -0.1189   28.6079 C   0  0  0  0  0  0  0  0  0  0  0  0
  -26.9716    0.7139   27.5060 C   0  0  0  0  0  0  0  0  0  0  0  0
  -28.1053    0.7744   26.6421 C   0  0  0  0  0  0  0  0  0  0  0  0
  -29.2041    0.1179   27.0477 C   0  0  0  0  0  0  0  0  0  0  0  0
  -29.2127   -0.6088   28.1281 C   0  0  0  0  0  0  0  0  0  0  0  0
  -30.6624    0.2313   26.2021 Cl  0  0  0  0  0  0  0  0  0  0  0  0
  -25.7054    1.4439   27.1045 C   0  0  0  0  0  0  0  0  0  0  0  0
  -25.3352    1.8933   26.1196 C   0  0  0  0  0  0  0  0  0  0  0  0
  -23.9952    2.5650   25.9492 C   0  0  0  0  0  0  0  0  0  0  0  0
  -23.0447    2.3860   26.9726 C   0  0  0  0  0  0  0  0  0  0  0  0
  -23.4181    1.6840   28.1153 C   0  0  0  0  0  0  0  0  0  0  0  0
  -24.6821    1.1809   28.2538 C   0  0  0  0  0  0  0  0  0  0  0  0
  -22.4545    1.5947   29.0431 O   0  0  0  0  0  0  0  0  0  0  0  0
  5  7  1  0
  3  8  1  0
 12 14  1  0
  1  2  2  0
  2  3  1  0
  3  4  2  0
  4  5  1  0
  5  6  2  0
  6  1  1  0
  8  9  2  0
  9 10  1  0
 10 11  2  0
 11 12  1  0
 12 13  2  0
 13  8  1  0
M  END

$$$$
