No_4705-gen_results/8p0m/2024-11-27-11-27-31/
     RDKit          3D

  7  7  0  0  0  0  0  0  0  0999 V2000
  -28.0727   -1.2542   28.5316 F   0  0  0  0  0  0  0  0  0  0  0  0
  -27.3591   -0.3792   28.7224 C   0  0  0  0  0  0  0  0  0  0  0  0
  -27.7014    0.7608   29.1249 C   0  0  0  0  0  0  0  0  0  0  0  0
  -25.9284   -0.8245   28.8472 C   0  0  0  0  0  0  0  0  0  0  0  0
  -24.9162    0.2122   29.0764 C   0  0  0  0  0  0  0  0  0  0  0  0
  -26.6909    1.8339   29.3709 C   0  0  0  0  0  0  0  0  0  0  0  0
  -25.3428    1.5126   29.3595 C   0  0  0  0  0  0  0  0  0  0  0  0
  1  2  1  0
  2  3  2  0
  3  6  1  0
  6  7  2  0
  7  5  1  0
  5  4  2  0
  4  2  1  0
M  END

$$$$
