No_4012-gen_results/8p0m/2024-11-27-11-27-31/
     RDKit          3D

 25 28  0  0  0  0  0  0  0  0999 V2000
  -28.0162   -0.8135   28.8779 C   0  0  0  0  0  0  0  0  0  0  0  0
  -27.0636   -0.1189   28.6079 C   0  0  0  0  0  0  0  0  0  0  0  0
  -26.9716    0.7139   27.5060 C   0  0  0  0  0  0  0  0  0  0  0  0
  -25.8205    1.4909   27.1160 C   0  0  0  0  0  0  0  0  0  0  0  0
  -24.6562    1.4242   27.9180 C   0  0  0  0  0  0  0  0  0  0  0  0
  -23.4598    2.1165   27.6160 C   0  0  0  0  0  0  0  0  0  0  0  0
  -22.3449    1.9937   28.4414 C   0  0  0  0  0  0  0  0  0  0  0  0
  -22.3657    0.9905   29.4427 C   0  0  0  0  0  0  0  0  0  0  0  0
  -23.4794    0.3053   29.7917 C   0  0  0  0  0  0  0  0  0  0  0  0
  -24.6337    0.4667   29.0059 C   0  0  0  0  0  0  0  0  0  0  0  0
  -25.7674   -0.2668   29.3410 C   0  0  0  0  0  0  0  0  0  0  0  0
  -28.7112   -0.4048   30.1503 C   0  0  0  0  0  0  0  0  0  0  0  0
  -29.7644   -1.1564   30.6028 N   0  0  0  0  0  0  0  0  0  0  0  0
  -30.6284   -0.8252   31.1959 C   0  0  0  0  0  0  0  0  0  0  0  0
  -28.1316    0.8992   26.9227 O   0  0  0  0  0  0  0  0  0  0  0  0
  -31.0543    0.0703   31.3688 C   0  0  0  0  0  0  0  0  0  0  0  0
  -30.0548    1.2211   31.0831 C   0  0  0  0  0  0  0  0  0  0  0  0
  -28.0870    0.4498   31.1729 C   0  0  0  0  0  0  0  0  0  0  0  0
  -30.7400    2.6246   31.2994 C   0  0  0  0  0  0  0  0  0  0  0  0
  -28.7733    1.3628   31.0844 C   0  0  0  0  0  0  0  0  0  0  0  0
  -31.8922    2.6080   31.4333 F   0  0  0  0  0  0  0  0  0  0  0  0
  -29.9763    3.7814   30.9709 C   0  0  0  0  0  0  0  0  0  0  0  0
  -28.6469    3.7799   30.8225 C   0  0  0  0  0  0  0  0  0  0  0  0
  -28.0172    2.6419   30.9339 C   0  0  0  0  0  0  0  0  0  0  0  0
  -25.9123    2.4003   26.0076 C   0  0  0  0  0  0  0  0  0  0  0  0
  1  2  2  3
  2  3  1  0
  3  4  1  0
  4  5  1  0
  2 11  1  0
 10 11  1  0
  1 12  1  0
 12 13  1  0
 13 14  1  0
  3 15  2  0
 14 16  2  0
 16 17  1  0
 12 18  1  0
 19 21  1  0
  4 25  1  0
 18 20  1  0
  5  6  2  0
  6  7  1  0
  7  8  2  0
  8  9  1  0
  9 10  2  0
 10  5  1  0
 17 19  2  0
 19 22  1  0
 22 23  2  0
 23 24  1  0
 24 20  2  0
 20 17  1  0
M  END

$$$$
