No_4023-gen_results/8p0m/2024-11-27-11-27-31/
     RDKit          3D

 17 18  0  0  0  0  0  0  0  0999 V2000
  -28.0162   -0.8135   28.8779 C   0  0  0  0  0  0  0  0  0  0  0  0
  -28.4690   -0.7850   29.8287 C   0  0  0  0  0  0  0  0  0  0  0  0
  -26.5042   -0.7777   28.8766 C   0  0  0  0  0  0  0  0  0  0  0  0
  -25.8103   -0.8531   30.1028 C   0  0  0  0  0  0  0  0  0  0  0  0
  -27.9906   -0.8916   31.2257 C   0  0  0  0  0  0  0  0  0  0  0  0
  -26.6042   -0.8676   31.2652 C   0  0  0  0  0  0  0  0  0  0  0  0
  -24.1648   -0.7915   30.1717 Cl  0  0  0  0  0  0  0  0  0  0  0  0
  -29.9538   -0.8213   29.8217 O   0  0  0  0  0  0  0  0  0  0  0  0
  -30.6532    0.2391   30.2274 C   0  0  0  0  0  0  0  0  0  0  0  0
  -31.6219    0.5779   29.5395 C   0  0  0  0  0  0  0  0  0  0  0  0
  -32.3936    1.7654   29.8913 C   0  0  0  0  0  0  0  0  0  0  0  0
  -32.0196    2.4606   31.0688 C   0  0  0  0  0  0  0  0  0  0  0  0
  -30.9406    2.0042   31.7764 C   0  0  0  0  0  0  0  0  0  0  0  0
  -30.2205    0.9452   31.4018 C   0  0  0  0  0  0  0  0  0  0  0  0
  -30.5324    2.7481   33.0108 C   0  0  0  0  0  0  0  0  0  0  0  0
  -30.6266    3.8667   33.2903 C   0  0  0  0  0  0  0  0  0  0  0  0
  -30.1673    4.4728   34.5069 C   0  0  0  0  0  0  0  0  0  0  0  0
  4  7  1  0
  2  8  1  0
  8  9  1  0
 13 15  1  0
 15 16  2  3
 16 17  1  0
  9 10  2  0
 10 11  1  0
 11 12  2  0
 12 13  1  0
 13 14  2  0
 14  9  1  0
  1  2  2  0
  2  5  1  0
  5  6  2  0
  6  4  1  0
  4  3  2  0
  3  1  1  0
M  END

$$$$
