No_4614-gen_results/8p0m/2024-11-27-11-27-31/
     RDKit          3D

 18 18  0  0  0  0  0  0  0  0999 V2000
  -28.0162   -0.8135   28.8779 C   0  0  0  0  0  0  0  0  0  0  0  0
  -28.4690   -0.7850   29.8287 C   0  0  0  0  0  0  0  0  0  0  0  0
  -27.1356    0.2359   28.5352 C   0  0  0  0  0  0  0  0  0  0  0  0
  -26.3351    0.2900   27.2835 C   0  0  0  0  0  0  0  0  0  0  0  0
  -29.3807   -1.9134   30.3549 C   0  0  0  0  0  0  0  0  0  0  0  0
  -28.2016    0.2191   30.8629 C   0  0  0  0  0  0  0  0  0  0  0  0
  -27.3787    1.2817   30.6151 C   0  0  0  0  0  0  0  0  0  0  0  0
  -26.7396    1.2931   29.4287 C   0  0  0  0  0  0  0  0  0  0  0  0
  -25.9348    1.0830   26.6240 C   0  0  0  0  0  0  0  0  0  0  0  0
  -25.2233    1.6704   26.2168 C   0  0  0  0  0  0  0  0  0  0  0  0
  -24.6006    2.9137   26.6963 C   0  0  0  0  0  0  0  0  0  0  0  0
  -23.5833    3.6242   25.9939 C   0  0  0  0  0  0  0  0  0  0  0  0
  -28.9212   -3.0113   30.5740 O   0  0  0  0  0  0  0  0  0  0  0  0
  -30.6110   -1.7307   30.5205 O   0  0  0  0  0  0  0  0  0  0  0  0
  -22.7334    2.8237   25.2079 C   0  0  0  0  0  0  0  0  0  0  0  0
  -23.0493    1.5621   24.9021 C   0  0  0  0  0  0  0  0  0  0  0  0
  -24.1651    1.0039   25.3436 C   0  0  0  0  0  0  0  0  0  0  0  0
  -24.5687   -0.1711   24.9662 F   0  0  0  0  0  0  0  0  0  0  0  0
  3  4  1  0
  2  5  1  0
  4  9  2  3
  9 10  1  0
 10 11  2  3
 11 12  1  0
  5 13  1  0
  5 14  2  0
 12 15  2  3
 15 16  1  0
 16 17  2  3
 17 18  1  0
  1  2  2  0
  2  6  1  0
  6  7  2  0
  7  8  1  0
  8  3  2  0
  3  1  1  0
M  END

$$$$
