No_4327-gen_results/8p0m/2024-11-27-11-27-31/
     RDKit          3D

 35 38  0  0  0  0  0  0  0  0999 V2000
  -28.0162   -0.8135   28.8779 C   0  0  0  0  0  0  0  0  0  0  0  0
  -27.0636   -0.1190   28.6079 C   0  0  0  0  0  0  0  0  0  0  0  0
  -26.9716    0.7139   27.5060 C   0  0  0  0  0  0  0  0  0  0  0  0
  -25.8205    1.4909   27.1160 C   0  0  0  0  0  0  0  0  0  0  0  0
  -24.8579    1.3421   27.6008 C   0  0  0  0  0  0  0  0  0  0  0  0
  -24.6224    0.5295   28.8144 C   0  0  0  0  0  0  0  0  0  0  0  0
  -25.7344   -0.1811   29.1908 C   0  0  0  0  0  0  0  0  0  0  0  0
  -27.9596   -1.4412   30.2523 C   0  0  0  0  0  0  0  0  0  0  0  0
  -26.7274   -1.7699   30.8429 C   0  0  0  0  0  0  0  0  0  0  0  0
  -25.6289   -1.0329   30.4200 C   0  0  0  0  0  0  0  0  0  0  0  0
  -23.5441    2.1652   27.2447 C   0  0  0  0  0  0  0  0  0  0  0  0
  -23.5031    2.6978   26.0892 O   0  0  0  0  0  0  0  0  0  0  0  0
  -22.4260    2.1165   27.9794 O   0  0  0  0  0  0  0  0  0  0  0  0
  -28.2186    0.8282   26.6351 C   0  0  0  0  0  0  0  0  0  0  0  0
  -28.1987    0.6127   25.4516 O   0  0  0  0  0  0  0  0  0  0  0  0
  -29.3835    1.0865   27.2549 N   0  0  0  0  0  0  0  0  0  0  0  0
  -30.4599    1.4579   26.6807 C   0  0  0  0  0  0  0  0  0  0  0  0
  -29.1370   -2.2916   30.6867 C   0  0  0  0  0  0  0  0  0  0  0  0
  -29.9605   -1.7893   31.2479 O   0  0  0  0  0  0  0  0  0  0  0  0
  -29.0607   -3.5522   30.4139 O   0  0  0  0  0  0  0  0  0  0  0  0
  -31.1994    2.2468   27.2144 C   0  0  0  0  0  0  0  0  0  0  0  0
  -32.1711    2.9708   26.6496 C   0  0  0  0  0  0  0  0  0  0  0  0
  -32.5059    2.6066   25.2660 C   0  0  0  0  0  0  0  0  0  0  0  0
  -31.6898    1.6736   24.6236 C   0  0  0  0  0  0  0  0  0  0  0  0
  -30.6388    1.1648   25.2806 C   0  0  0  0  0  0  0  0  0  0  0  0
  -24.3446   -1.1775   31.1021 C   0  0  0  0  0  0  0  0  0  0  0  0
  -24.2399   -0.9321   32.2952 O   0  0  0  0  0  0  0  0  0  0  0  0
  -23.3079   -1.3142   30.3328 O   0  0  0  0  0  0  0  0  0  0  0  0
  -30.1907   -4.3409   30.3926 C   0  0  0  0  0  0  0  0  0  0  0  0
  -31.2629   -3.9258   30.1594 C   0  0  0  0  0  0  0  0  0  0  0  0
  -31.7711   -4.1986   29.2185 C   0  0  0  0  0  0  0  0  0  0  0  0
  -32.7435   -3.3652   28.4874 C   0  0  0  0  0  0  0  0  0  0  0  0
  -33.1974   -2.2405   29.2065 C   0  0  0  0  0  0  0  0  0  0  0  0
  -32.6955   -1.9601   30.4407 C   0  0  0  0  0  0  0  0  0  0  0  0
  -31.6528   -2.7012   30.8332 C   0  0  0  0  0  0  0  0  0  0  0  0
  5 11  1  0
 11 12  2  0
 11 13  1  0
  3 14  1  0
 14 15  2  0
 14 16  1  0
 16 17  1  0
  8 18  1  0
 18 19  2  0
 18 20  1  0
 10 26  1  0
 26 27  2  0
 26 28  1  0
 20 29  1  0
 29 30  1  0
  2  3  1  0
  3  4  2  0
  4  5  1  0
  5  6  2  0
  6  7  1  0
 17 21  2  0
 21 22  1  0
 22 23  2  0
 23 24  1  0
 24 25  2  0
 25 17  1  0
 30 31  2  0
 31 32  1  0
 32 33  2  0
 33 34  1  0
 34 35  2  0
 35 30  1  0
  1  2  2  0
  2  7  1  0
  7 10  2  0
 10  9  1  0
  9  8  2  0
  8  1  1  0
M  END

$$$$
