No_4844-gen_results/8p0m/2024-11-27-11-27-31/
     RDKit          3D

 19 21  0  0  0  0  0  0  0  0999 V2000
  -28.0162   -0.8135   28.8779 C   0  0  0  0  0  0  0  0  0  0  0  0
  -27.0636   -0.1190   28.6079 C   0  0  0  0  0  0  0  0  0  0  0  0
  -25.7923   -0.4302   29.0761 C   0  0  0  0  0  0  0  0  0  0  0  0
  -25.5756   -1.5654   29.9363 C   0  0  0  0  0  0  0  0  0  0  0  0
  -26.7354   -2.3004   30.2173 C   0  0  0  0  0  0  0  0  0  0  0  0
  -27.9184   -1.9537   29.7629 C   0  0  0  0  0  0  0  0  0  0  0  0
  -27.1057    1.1023   27.7593 C   0  0  0  0  0  0  0  0  0  0  0  0
  -26.7157    2.2350   27.9945 C   0  0  0  0  0  0  0  0  0  0  0  0
  -26.3325    3.1723   27.6009 C   0  0  0  0  0  0  0  0  0  0  0  0
  -25.8040    4.4611   28.2005 C   0  0  0  0  0  0  0  0  0  0  0  0
  -25.7023    4.4054   29.5581 C   0  0  0  0  0  0  0  0  0  0  0  0
  -26.0201    3.2628   30.2528 C   0  0  0  0  0  0  0  0  0  0  0  0
  -26.4650    2.1882   29.5699 C   0  0  0  0  0  0  0  0  0  0  0  0
  -27.6189    0.8893   26.3952 C   0  0  0  0  0  0  0  0  0  0  0  0
  -28.7533    1.2538   26.0698 N   0  0  0  0  0  0  0  0  0  0  0  0
  -26.8637    0.2558   25.5014 N   0  0  0  0  0  0  0  0  0  0  0  0
  -28.8834    0.8824   24.7646 C   0  0  0  0  0  0  0  0  0  0  0  0
  -27.6641    0.2569   24.4259 C   0  0  0  0  0  0  0  0  0  0  0  0
  -29.2988   -2.8738   30.1707 Cl  0  0  0  0  0  0  0  0  0  0  0  0
  2  7  1  0
  7 14  1  0
 14 15  1  0
 14 16  2  0
 15 17  2  0
 16 18  1  0
 17 18  1  0
  6 19  1  0
  7  8  1  0
  1  2  2  0
  2  3  1  0
  3  4  2  0
  4  5  1  0
  5  6  2  0
  6  1  1  0
  8  9  2  0
  9 10  1  0
 10 11  2  0
 11 12  1  0
 12 13  2  0
 13  8  1  0
M  END

$$$$
