No_4865-gen_results/8p0m/2024-11-27-11-27-31/
     RDKit          3D

 22 23  0  0  0  0  0  0  0  0999 V2000
  -28.0162   -0.8135   28.8779 C   0  0  0  0  0  0  0  0  0  0  0  0
  -27.0636   -0.1189   28.6079 C   0  0  0  0  0  0  0  0  0  0  0  0
  -25.7647   -0.3897   29.0360 C   0  0  0  0  0  0  0  0  0  0  0  0
  -25.5296   -1.5302   29.9014 C   0  0  0  0  0  0  0  0  0  0  0  0
  -26.6577   -2.2915   30.2035 C   0  0  0  0  0  0  0  0  0  0  0  0
  -27.8548   -1.9555   29.7630 C   0  0  0  0  0  0  0  0  0  0  0  0
  -24.5349    0.4128   28.7431 C   0  0  0  0  0  0  0  0  0  0  0  0
  -24.4835    1.2431   27.7398 C   0  0  0  0  0  0  0  0  0  0  0  0
  -23.4717    1.9016   27.3845 C   0  0  0  0  0  0  0  0  0  0  0  0
  -22.1793    1.7156   27.9288 C   0  0  0  0  0  0  0  0  0  0  0  0
  -23.2884    0.1334   29.4280 C   0  0  0  0  0  0  0  0  0  0  0  0
  -22.1044    0.8262   29.0047 C   0  0  0  0  0  0  0  0  0  0  0  0
  -29.0103   -2.7995   30.1904 C   0  0  0  0  0  0  0  0  0  0  0  0
  -28.9173   -4.0348   30.2993 O   0  0  0  0  0  0  0  0  0  0  0  0
  -30.1650   -2.2233   30.5405 N   0  0  0  0  0  0  0  0  0  0  0  0
  -31.3130   -3.0193   30.9610 C   0  0  0  0  0  0  0  0  0  0  0  0
  -31.2998   -3.6989   31.9424 C   0  0  0  0  0  0  0  0  0  0  0  0
  -30.4891   -3.3111   32.9873 C   0  0  0  0  0  0  0  0  0  0  0  0
  -30.2547   -4.1937   34.0642 N   0  0  0  0  0  0  0  0  0  0  0  0
  -29.4832   -3.7911   35.1398 C   0  0  0  0  0  0  0  0  0  0  0  0
  -29.5286   -2.5952   35.6682 C   0  0  0  0  0  0  0  0  0  0  0  0
  -29.6387   -1.5058   34.6408 C   0  0  0  0  0  0  0  0  0  0  0  0
  3  7  1  0
  6 13  1  0
 13 14  2  0
 13 15  1  0
 15 16  1  0
 16 17  2  3
 17 18  1  0
 18 19  2  3
 19 20  1  0
 20 21  1  0
 21 22  2  0
  7  8  2  0
  8  9  1  0
  9 10  2  0
 10 12  1  0
 12 11  2  0
 11  7  1  0
  1  2  2  0
  2  3  1  0
  3  4  2  0
  4  5  1  0
  5  6  2  0
  6  1  1  0
M  END

$$$$
