No_4973-gen_results/8p0m/2024-11-27-11-27-31/
     RDKit          3D

 15 15  0  0  0  0  0  0  0  0999 V2000
  -28.0162   -0.8135   28.8779 C   0  0  0  0  0  0  0  0  0  0  0  0
  -27.0636   -0.1189   28.6079 C   0  0  0  0  0  0  0  0  0  0  0  0
  -25.7647   -0.3897   29.0360 C   0  0  0  0  0  0  0  0  0  0  0  0
  -24.5516    0.4058   28.7646 C   0  0  0  0  0  0  0  0  0  0  0  0
  -24.6957    1.4480   27.7988 C   0  0  0  0  0  0  0  0  0  0  0  0
  -25.9755    1.7250   27.3077 C   0  0  0  0  0  0  0  0  0  0  0  0
  -27.0718    1.0134   27.6535 C   0  0  0  0  0  0  0  0  0  0  0  0
  -29.1830   -0.1483   29.1167 N   0  0  0  0  0  0  0  0  0  0  0  0
  -30.1695   -0.7663   29.7982 C   0  0  0  0  0  0  0  0  0  0  0  0
  -23.4963    2.2055   27.4997 C   0  0  0  0  0  0  0  0  0  0  0  0
  -23.7068    3.1759   26.7545 F   0  0  0  0  0  0  0  0  0  0  0  0
  -22.5656    1.4544   26.7667 F   0  0  0  0  0  0  0  0  0  0  0  0
  -22.8673    2.6836   28.5638 F   0  0  0  0  0  0  0  0  0  0  0  0
  -30.4743   -0.5378   31.0592 C   0  0  0  0  0  0  0  0  0  0  0  0
  -31.4668   -1.1918   31.8099 C   0  0  0  0  0  0  0  0  0  0  0  0
  1  2  2  3
  2  3  1  0
  3  4  1  0
  4  5  1  0
  5  6  1  0
  2  7  1  0
  6  7  1  0
  1  8  1  0
  8  9  1  0
  5 10  1  0
 10 11  1  0
 10 12  1  0
 10 13  1  0
  9 14  2  3
 14 15  1  0
M  END

$$$$
