No_4490-gen_results/8p0m/2024-11-27-11-27-31/
     RDKit          3D

 19 20  0  0  0  0  0  0  0  0999 V2000
  -28.0162   -0.8135   28.8779 C   0  0  0  0  0  0  0  0  0  0  0  0
  -28.4690   -0.7850   29.8287 C   0  0  0  0  0  0  0  0  0  0  0  0
  -27.1356    0.2359   28.5352 C   0  0  0  0  0  0  0  0  0  0  0  0
  -26.8745    1.2825   29.3982 C   0  0  0  0  0  0  0  0  0  0  0  0
  -27.5070    1.2380   30.6295 C   0  0  0  0  0  0  0  0  0  0  0  0
  -28.3293    0.1745   30.9350 C   0  0  0  0  0  0  0  0  0  0  0  0
  -26.4077    0.3070   27.2259 C   0  0  0  0  0  0  0  0  0  0  0  0
  -25.2790    0.0248   27.2489 O   0  0  0  0  0  0  0  0  0  0  0  0
  -27.1713    0.2547   26.0483 N   0  0  0  0  0  0  0  0  0  0  0  0
  -28.5120    0.5997   25.9791 C   0  0  0  0  0  0  0  0  0  0  0  0
  -28.8407    1.3250   25.3098 C   0  0  0  0  0  0  0  0  0  0  0  0
  -30.2550    1.7525   25.2327 C   0  0  0  0  0  0  0  0  0  0  0  0
  -31.1618    1.0127   25.9260 C   0  0  0  0  0  0  0  0  0  0  0  0
  -30.7358    0.0005   26.6978 C   0  0  0  0  0  0  0  0  0  0  0  0
  -29.3843   -0.2272   26.8498 C   0  0  0  0  0  0  0  0  0  0  0  0
  -26.4506    0.0573   24.8335 C   0  0  0  0  0  0  0  0  0  0  0  0
  -31.7188   -0.6839   27.5989 C   0  0  0  0  0  0  0  0  0  0  0  0
  -31.8976   -1.8976   27.4695 O   0  0  0  0  0  0  0  0  0  0  0  0
  -32.5941    0.0516   28.2798 O   0  0  0  0  0  0  0  0  0  0  0  0
  3  7  1  0
  7  8  2  0
  7  9  1  0
  9 10  1  0
  9 16  1  0
 14 17  1  0
 17 18  2  0
 17 19  1  0
  1  2  2  0
  2  6  1  0
  6  5  2  0
  5  4  1  0
  4  3  2  0
  3  1  1  0
 10 11  2  0
 11 12  1  0
 12 13  2  0
 13 14  1  0
 14 15  2  0
 15 10  1  0
M  END

$$$$
