No_4409-gen_results/8p0m/2024-11-27-11-27-31/
     RDKit          3D

 19 19  0  0  0  0  0  0  0  0999 V2000
  -28.0162   -0.8135   28.8779 C   0  0  0  0  0  0  0  0  0  0  0  0
  -28.4690   -0.7850   29.8287 C   0  0  0  0  0  0  0  0  0  0  0  0
  -26.5042   -0.7777   28.8766 C   0  0  0  0  0  0  0  0  0  0  0  0
  -25.8103   -0.8531   30.1028 C   0  0  0  0  0  0  0  0  0  0  0  0
  -27.9906   -0.8916   31.2257 C   0  0  0  0  0  0  0  0  0  0  0  0
  -26.6042   -0.8676   31.2652 C   0  0  0  0  0  0  0  0  0  0  0  0
  -24.5534   -0.7870   30.1406 F   0  0  0  0  0  0  0  0  0  0  0  0
  -30.0954   -0.8409   29.8497 C   0  0  0  0  0  0  0  0  0  0  0  0
  -30.7546    0.0836   30.4685 N   0  0  0  0  0  0  0  0  0  0  0  0
  -31.9488    0.1571   30.5965 C   0  0  0  0  0  0  0  0  0  0  0  0
  -32.6370    1.2982   31.2153 C   0  0  0  0  0  0  0  0  0  0  0  0
  -32.4522   -0.9211   31.2735 C   0  0  0  0  0  0  0  0  0  0  0  0
  -30.5644   -1.8276   29.3542 O   0  0  0  0  0  0  0  0  0  0  0  0
  -32.2273    2.5653   30.8128 C   0  0  0  0  0  0  0  0  0  0  0  0
  -31.3308    2.8072   30.0574 C   0  0  0  0  0  0  0  0  0  0  0  0
  -31.1112    3.7970   29.4855 C   0  0  0  0  0  0  0  0  0  0  0  0
  -29.9505    4.0786   28.5666 C   0  0  0  0  0  0  0  0  0  0  0  0
  -29.0860    2.9906   28.4260 C   0  0  0  0  0  0  0  0  0  0  0  0
  -29.2788    1.8818   29.1606 C   0  0  0  0  0  0  0  0  0  0  0  0
  4  7  1  0
  2  8  1  0
  8  9  1  0
  9 10  2  3
 10 11  1  0
 10 12  1  0
  8 13  2  0
 11 14  1  0
 14 15  2  3
 15 16  1  0
 16 17  2  3
 17 18  1  0
 18 19  2  0
  1  2  2  0
  2  5  1  0
  5  6  2  0
  6  4  1  0
  4  3  2  0
  3  1  1  0
M  END

$$$$
