No_4797-gen_results/8p0m/2024-11-27-11-27-31/
     RDKit          3D

 17 17  0  0  0  0  0  0  0  0999 V2000
  -28.0162   -0.8135   28.8779 C   0  0  0  0  0  0  0  0  0  0  0  0
  -27.0636   -0.1189   28.6079 C   0  0  0  0  0  0  0  0  0  0  0  0
  -25.7647   -0.3897   29.0360 C   0  0  0  0  0  0  0  0  0  0  0  0
  -25.5296   -1.5302   29.9014 C   0  0  0  0  0  0  0  0  0  0  0  0
  -26.6888   -2.2893   30.1810 C   0  0  0  0  0  0  0  0  0  0  0  0
  -27.8727   -1.9508   29.7373 C   0  0  0  0  0  0  0  0  0  0  0  0
  -24.6993    0.3604   28.7753 F   0  0  0  0  0  0  0  0  0  0  0  0
  -29.0333   -2.8145   30.1506 C   0  0  0  0  0  0  0  0  0  0  0  0
  -28.9193   -4.0108   30.2155 O   0  0  0  0  0  0  0  0  0  0  0  0
  -30.2058   -2.2293   30.3630 N   0  0  0  0  0  0  0  0  0  0  0  0
  -30.4710   -0.8493   30.4047 C   0  0  0  0  0  0  0  0  0  0  0  0
  -31.2995   -3.1337   30.8655 C   0  0  0  0  0  0  0  0  0  0  0  0
  -30.8639   -0.3625   31.7527 C   0  0  0  0  0  0  0  0  0  0  0  0
  -30.8897    0.8436   31.9527 C   0  0  0  0  0  0  0  0  0  0  0  0
  -31.0848    1.4060   33.2943 C   0  0  0  0  0  0  0  0  0  0  0  0
  -31.4448    0.4908   34.2850 C   0  0  0  0  0  0  0  0  0  0  0  0
  -31.4022   -0.8595   34.0082 C   0  0  0  0  0  0  0  0  0  0  0  0
  3  7  1  0
  6  8  1  0
  8  9  2  0
  8 10  1  0
 10 11  1  0
 10 12  1  0
 11 13  2  3
 13 14  1  0
 14 15  1  0
 15 16  2  3
 16 17  1  0
  1  2  2  0
  2  3  1  0
  3  4  2  0
  4  5  1  0
  5  6  2  0
  6  1  1  0
M  END

$$$$
