No_4619-gen_results/8p0m/2024-11-27-11-27-31/
     RDKit          3D

 20 20  0  0  0  0  0  0  0  0999 V2000
  -28.0162   -0.8135   28.8779 C   0  0  0  0  0  0  0  0  0  0  0  0
  -27.0636   -0.1189   28.6079 C   0  0  0  0  0  0  0  0  0  0  0  0
  -26.9716    0.7139   27.5060 C   0  0  0  0  0  0  0  0  0  0  0  0
  -25.8205    1.4910   27.1160 C   0  0  0  0  0  0  0  0  0  0  0  0
  -24.6562    1.4242   27.9180 C   0  0  0  0  0  0  0  0  0  0  0  0
  -24.6847    0.5901   29.0659 C   0  0  0  0  0  0  0  0  0  0  0  0
  -25.8099   -0.1265   29.3338 C   0  0  0  0  0  0  0  0  0  0  0  0
  -28.7093   -0.4588   30.1754 C   0  0  0  0  0  0  0  0  0  0  0  0
  -29.4273   -1.3885   30.7420 O   0  0  0  0  0  0  0  0  0  0  0  0
  -23.4634    2.2046   27.5975 C   0  0  0  0  0  0  0  0  0  0  0  0
  -22.5740    2.2499   28.4844 O   0  0  0  0  0  0  0  0  0  0  0  0
  -23.0954    2.3259   26.3209 O   0  0  0  0  0  0  0  0  0  0  0  0
  -28.2252    0.3868   30.9160 O   0  0  0  0  0  0  0  0  0  0  0  0
  -28.0798    0.8126   26.5566 C   0  0  0  0  0  0  0  0  0  0  0  0
  -28.9561    1.4934   26.6903 O   0  0  0  0  0  0  0  0  0  0  0  0
  -27.8942    0.2270   25.3973 O   0  0  0  0  0  0  0  0  0  0  0  0
  -28.9524   -0.0281   24.5674 C   0  0  0  0  0  0  0  0  0  0  0  0
  -30.0984   -0.4697   25.1406 C   0  0  0  0  0  0  0  0  0  0  0  0
  -30.9019    0.3090   25.3564 O   0  0  0  0  0  0  0  0  0  0  0  0
  -30.3692   -1.7531   25.1903 O   0  0  0  0  0  0  0  0  0  0  0  0
  1  2  2  3
  2  3  1  0
  3  4  1  0
  4  5  1  0
  5  6  1  0
  2  7  1  0
  6  7  1  0
  1  8  1  0
  8  9  1  0
  5 10  1  0
 10 11  2  0
 10 12  1  0
  8 13  2  0
  3 14  1  0
 14 15  2  0
 14 16  1  0
 16 17  1  0
 17 18  1  0
 18 19  2  0
 18 20  1  0
M  END

$$$$
