No_4389-gen_results/8p0m/2024-11-27-11-27-31/
     RDKit          3D

 13 13  0  0  0  0  0  0  0  0999 V2000
  -27.9463   -0.6272   28.9934 S   0  0  0  0  0  0  0  0  0  0  0  0
  -28.3730   -0.4612   30.0847 C   0  0  0  0  0  0  0  0  0  0  0  0
  -26.2144   -0.4995   29.2507 C   0  0  0  0  0  0  0  0  0  0  0  0
  -25.9039   -0.9397   30.4475 C   0  0  0  0  0  0  0  0  0  0  0  0
  -24.5954   -0.8060   30.7905 F   0  0  0  0  0  0  0  0  0  0  0  0
  -26.8827   -0.2970   31.3954 C   0  0  0  0  0  0  0  0  0  0  0  0
  -26.0317   -2.4868   30.5206 C   0  0  0  0  0  0  0  0  0  0  0  0
  -29.2034   -1.5066   30.8387 C   0  0  0  0  0  0  0  0  0  0  0  0
  -28.8767   -2.4636   31.4019 O   0  0  0  0  0  0  0  0  0  0  0  0
  -30.4716   -1.0914   31.2207 N   0  0  0  0  0  0  0  0  0  0  0  0
  -31.4226   -1.9729   31.9416 C   0  0  0  0  0  0  0  0  0  0  0  0
  -25.2532   -0.0998   28.2598 C   0  0  0  0  0  0  0  0  0  0  0  0
  -24.0072   -0.0092   28.4867 C   0  0  0  0  0  0  0  0  0  0  0  0
  1  2  1  0
  1  3  1  0
  3  4  1  0
  4  5  1  0
  2  6  1  0
  4  6  1  0
  4  7  1  0
  2  8  1  0
  8  9  2  0
  8 10  1  0
 10 11  1  0
  3 12  1  0
 12 13  1  0
M  END

$$$$
