No_4721-gen_results/8p0m/2024-11-27-11-27-31/
     RDKit          3D

 19 21  0  0  0  0  0  0  0  0999 V2000
  -28.0162   -0.8135   28.8779 C   0  0  0  0  0  0  0  0  0  0  0  0
  -27.0636   -0.1189   28.6079 C   0  0  0  0  0  0  0  0  0  0  0  0
  -25.7923   -0.4302   29.0761 C   0  0  0  0  0  0  0  0  0  0  0  0
  -24.5456    0.3494   28.8225 C   0  0  0  0  0  0  0  0  0  0  0  0
  -24.6586    1.4196   27.8878 C   0  0  0  0  0  0  0  0  0  0  0  0
  -25.9471    1.6811   27.3792 C   0  0  0  0  0  0  0  0  0  0  0  0
  -27.0439    0.9739   27.6871 C   0  0  0  0  0  0  0  0  0  0  0  0
  -27.9517   -1.7518   29.9375 N   0  0  0  0  0  0  0  0  0  0  0  0
  -29.1984   -0.5344   28.5255 O   0  0  0  0  0  0  0  0  0  0  0  0
  -29.0453   -2.5720   30.4456 C   0  0  0  0  0  0  0  0  0  0  0  0
  -23.4612    2.1665   27.5992 C   0  0  0  0  0  0  0  0  0  0  0  0
  -22.2053    1.6285   28.0422 C   0  0  0  0  0  0  0  0  0  0  0  0
  -22.1522    0.5568   28.9488 C   0  0  0  0  0  0  0  0  0  0  0  0
  -23.3062   -0.1499   29.2695 C   0  0  0  0  0  0  0  0  0  0  0  0
  -29.8253   -3.0734   29.7304 C   0  0  0  0  0  0  0  0  0  0  0  0
  -30.6767   -3.6208   30.1186 N   0  0  0  0  0  0  0  0  0  0  0  0
  -28.6721   -3.6024   31.3871 C   0  0  0  0  0  0  0  0  0  0  0  0
  -29.5890   -4.3832   32.0080 C   0  0  0  0  0  0  0  0  0  0  0  0
  -30.5952   -4.6735   31.0552 C   0  0  0  0  0  0  0  0  0  0  0  0
  1  2  1  0
  1  8  1  0
  1  9  2  0
  8 10  1  0
  2  3  2  0
  3  4  1  0
  5  6  1  0
  6  7  2  0
  7  2  1  0
  4  5  2  0
  5 11  1  0
 11 12  2  0
 12 13  1  0
 13 14  2  0
 14  4  1  0
 10 15  2  0
 15 16  1  0
 16 19  2  0
 19 18  1  0
 18 17  2  0
 17 10  1  0
M  END

$$$$
