No_4756-gen_results/8p0m/2024-11-27-11-27-31/
     RDKit          3D

 25 28  0  0  0  0  0  0  0  0999 V2000
  -28.0162   -0.8135   28.8779 C   0  0  0  0  0  0  0  0  0  0  0  0
  -28.4690   -0.7850   29.8287 C   0  0  0  0  0  0  0  0  0  0  0  0
  -27.1356    0.2359   28.5352 C   0  0  0  0  0  0  0  0  0  0  0  0
  -26.3351    0.2900   27.2835 C   0  0  0  0  0  0  0  0  0  0  0  0
  -28.3692    0.1957   30.9236 C   0  0  0  0  0  0  0  0  0  0  0  0
  -27.5158    1.2655   30.6540 C   0  0  0  0  0  0  0  0  0  0  0  0
  -26.8411    1.2942   29.4761 C   0  0  0  0  0  0  0  0  0  0  0  0
  -25.6775    1.5199   26.9774 C   0  0  0  0  0  0  0  0  0  0  0  0
  -24.6512    1.5543   26.2096 C   0  0  0  0  0  0  0  0  0  0  0  0
  -23.8549    0.5222   25.7619 C   0  0  0  0  0  0  0  0  0  0  0  0
  -25.2253   -0.7227   27.1781 C   0  0  0  0  0  0  0  0  0  0  0  0
  -24.2036   -0.6336   26.2739 C   0  0  0  0  0  0  0  0  0  0  0  0
  -27.2959    0.0853   26.0385 C   0  0  0  0  0  0  0  0  0  0  0  0
  -28.4811    0.8173   26.1758 C   0  0  0  0  0  0  0  0  0  0  0  0
  -28.9802    1.1122   25.2199 C   0  0  0  0  0  0  0  0  0  0  0  0
  -30.1933    1.9813   25.2022 C   0  0  0  0  0  0  0  0  0  0  0  0
  -30.7011    2.5060   26.3852 C   0  0  0  0  0  0  0  0  0  0  0  0
  -30.0247    2.1143   27.5635 C   0  0  0  0  0  0  0  0  0  0  0  0
  -28.9071    1.3549   27.4896 C   0  0  0  0  0  0  0  0  0  0  0  0
  -29.0570    0.6963   28.4597 F   0  0  0  0  0  0  0  0  0  0  0  0
  -26.0684   -0.2239   29.0235 C   0  0  0  0  0  0  0  0  0  0  0  0
  -24.7263   -0.5958   28.6520 C   0  0  0  0  0  0  0  0  0  0  0  0
  -26.0138   -0.7523   30.4872 C   0  0  0  0  0  0  0  0  0  0  0  0
  -25.8747   -0.8362   29.7927 N   0  0  0  0  0  0  0  0  0  0  0  0
  -25.8940   -2.3187   29.2769 C   0  0  0  0  0  0  0  0  0  0  0  0
  1  3  1  0
  3  4  1  0
  2  5  1  0
  3  7  1  0
  6  7  1  0
  4  8  1  0
  9 10  1  0
  4 11  1  0
 10 12  1  0
 11 12  1  0
  4 13  1  0
 13 14  1  0
 19 20  1  0
  3 21  1  0
 11 22  1  0
 21 22  1  0
 21 23  1  0
 23 24  1  0
 24 25  1  0
  8  9  1  0
  1  2  1  0
  5  6  1  0
 14 15  2  0
 15 16  1  0
 16 17  2  0
 17 18  1  0
 18 19  2  0
 19 14  1  0
M  END

$$$$
