No_4234-gen_results/8p0m/2024-11-27-11-27-31/
     RDKit          3D

 15 14  0  0  0  0  0  0  0  0999 V2000
  -28.0162   -0.8135   28.8779 C   0  0  0  0  0  0  0  0  0  0  0  0
  -27.0636   -0.1190   28.6079 C   0  0  0  0  0  0  0  0  0  0  0  0
  -26.9849    0.5972   27.5218 N   0  0  0  0  0  0  0  0  0  0  0  0
  -27.9930   -1.5759   30.1509 C   0  0  0  0  0  0  0  0  0  0  0  0
  -26.8106   -1.6889   30.8356 C   0  0  0  0  0  0  0  0  0  0  0  0
  -25.6677   -1.0633   30.4296 C   0  0  0  0  0  0  0  0  0  0  0  0
  -25.7501   -0.2429   29.2785 C   0  0  0  0  0  0  0  0  0  0  0  0
  -24.4146   -1.1653   31.1330 C   0  0  0  0  0  0  0  0  0  0  0  0
  -25.1624   -1.8393   30.0395 O   0  0  0  0  0  0  0  0  0  0  0  0
  -25.0789    1.0021   29.2353 C   0  0  0  0  0  0  0  0  0  0  0  0
  -24.8034   -0.7096   28.0315 C   0  0  0  0  0  0  0  0  0  0  0  0
  -26.0120    0.6054   29.9036 F   0  0  0  0  0  0  0  0  0  0  0  0
  -24.7426    1.5127   28.1258 O   0  0  0  0  0  0  0  0  0  0  0  0
  -24.3683    1.5697   30.3449 O   0  0  0  0  0  0  0  0  0  0  0  0
  -24.8019   -2.7345   29.4035 C   0  0  0  0  0  0  0  0  0  0  0  0
  1  2  1  0
  2  3  2  0
  1  4  1  0
  4  5  1  0
  5  6  1  0
  2  7  1  0
  6  8  1  0
  6  9  1  0
  7 10  1  0
  7 11  1  0
  7 12  1  0
 10 13  1  0
 10 14  2  0
  9 15  1  0
M  END

$$$$
