No_4582-gen_results/8p0m/2024-11-27-11-27-31/
     RDKit          3D

 14 15  0  0  0  0  0  0  0  0999 V2000
  -28.0162   -0.8135   28.8779 C   0  0  0  0  0  0  0  0  0  0  0  0
  -28.4690   -0.7850   29.8287 C   0  0  0  0  0  0  0  0  0  0  0  0
  -28.1960    0.3478   28.0550 C   0  0  0  0  0  0  0  0  0  0  0  0
  -29.0191    1.3501   28.3782 C   0  0  0  0  0  0  0  0  0  0  0  0
  -29.4107    0.1803   30.3782 C   0  0  0  0  0  0  0  0  0  0  0  0
  -29.6059    1.2495   29.6193 C   0  0  0  0  0  0  0  0  0  0  0  0
  -27.2503    0.2232   26.6092 Cl  0  0  0  0  0  0  0  0  0  0  0  0
  -30.1017    0.1146   31.5103 F   0  0  0  0  0  0  0  0  0  0  0  0
  -29.1680    2.4841   27.4609 C   0  0  0  0  0  0  0  0  0  0  0  0
  -29.9611    2.5256   26.3216 C   0  0  0  0  0  0  0  0  0  0  0  0
  -28.3764    3.6930   27.7542 C   0  0  0  0  0  0  0  0  0  0  0  0
  -28.4154    4.7969   27.0120 C   0  0  0  0  0  0  0  0  0  0  0  0
  -30.0654    3.6594   25.5082 C   0  0  0  0  0  0  0  0  0  0  0  0
  -29.2525    4.8388   25.8542 C   0  0  0  0  0  0  0  0  0  0  0  0
  3  7  1  0
  5  8  1  0
  4  9  1  0
  9 10  2  0
 10 13  1  0
 13 14  2  0
 14 12  1  0
 12 11  2  0
 11  9  1  0
  1  2  2  0
  2  5  1  0
  5  6  2  0
  6  4  1  0
  4  3  2  0
  3  1  1  0
M  END

$$$$
