No_40-gen_results/8p0m/2024-11-27-11-27-31/
     RDKit          3D

 10 10  0  0  0  0  0  0  0  0999 V2000
  -28.0162   -0.8135   28.8779 C   0  0  0  0  0  0  0  0  0  0  0  0
  -28.4690   -0.7850   29.8287 C   0  0  0  0  0  0  0  0  0  0  0  0
  -26.6028   -1.0596   28.5384 C   0  0  0  0  0  0  0  0  0  0  0  0
  -25.7969   -1.4490   29.7273 C   0  0  0  0  0  0  0  0  0  0  0  0
  -26.4628   -1.5399   30.9726 C   0  0  0  0  0  0  0  0  0  0  0  0
  -27.7695   -1.2480   31.0791 C   0  0  0  0  0  0  0  0  0  0  0  0
  -24.4100   -1.7488   29.5832 C   0  0  0  0  0  0  0  0  0  0  0  0
  -24.2811   -2.8937   29.3049 F   0  0  0  0  0  0  0  0  0  0  0  0
  -23.7473   -1.5517   30.8219 F   0  0  0  0  0  0  0  0  0  0  0  0
  -23.7679   -0.9254   28.7226 F   0  0  0  0  0  0  0  0  0  0  0  0
  4  7  1  0
  7  8  1  0
  7  9  1  0
  7 10  1  0
  1  2  2  0
  2  6  1  0
  6  5  2  0
  5  4  1  0
  4  3  2  0
  3  1  1  0
M  END

$$$$
