No_4321-gen_results/8p0m/2024-11-27-11-27-31/
     RDKit          3D

  9  9  0  0  0  0  0  0  0  0999 V2000
  -28.0162   -0.8135   28.8779 C   0  0  0  0  0  0  0  0  0  0  0  0
  -28.4690   -0.7850   29.8287 C   0  0  0  0  0  0  0  0  0  0  0  0
  -26.5042   -0.7777   28.8766 C   0  0  0  0  0  0  0  0  0  0  0  0
  -25.7485   -0.2621   29.7279 Cl  0  0  0  0  0  0  0  0  0  0  0  0
  -29.9649   -0.7108   29.9613 C   0  0  0  0  0  0  0  0  0  0  0  0
  -30.6112   -0.6415   28.7420 C   0  0  0  0  0  0  0  0  0  0  0  0
  -29.9152   -0.4345   27.6030 C   0  0  0  0  0  0  0  0  0  0  0  0
  -28.5662   -0.4658   27.6208 C   0  0  0  0  0  0  0  0  0  0  0  0
  -25.8877   -1.5032   27.8272 O   0  0  0  0  0  0  0  0  0  0  0  0
  1  3  1  0
  3  4  1  0
  3  9  2  0
  1  2  2  0
  2  5  1  0
  5  6  2  0
  6  7  1  0
  7  8  2  0
  8  1  1  0
M  END

$$$$
