No_4034-gen_results/8p0m/2024-11-27-11-27-31/
     RDKit          3D

 30 32  0  0  0  0  0  0  0  0999 V2000
  -28.0162   -0.8135   28.8779 C   0  0  0  0  0  0  0  0  0  0  0  0
  -28.4690   -0.7850   29.8287 C   0  0  0  0  0  0  0  0  0  0  0  0
  -28.1816    0.4277   28.1134 C   0  0  0  0  0  0  0  0  0  0  0  0
  -27.4498    0.6435   26.8500 C   0  0  0  0  0  0  0  0  0  0  0  0
  -27.8596    1.4573   25.9076 C   0  0  0  0  0  0  0  0  0  0  0  0
  -29.4263    0.1097   30.4178 C   0  0  0  0  0  0  0  0  0  0  0  0
  -29.6233    1.2198   29.7351 C   0  0  0  0  0  0  0  0  0  0  0  0
  -28.9609    1.4529   28.5513 C   0  0  0  0  0  0  0  0  0  0  0  0
  -27.1733    1.5743   24.7028 C   0  0  0  0  0  0  0  0  0  0  0  0
  -26.0892    0.7468   24.4126 C   0  0  0  0  0  0  0  0  0  0  0  0
  -25.6364   -0.1191   25.3972 C   0  0  0  0  0  0  0  0  0  0  0  0
  -26.2807   -0.2063   26.5817 C   0  0  0  0  0  0  0  0  0  0  0  0
  -30.5407    2.3197   30.2507 C   0  0  0  0  0  0  0  0  0  0  0  0
  -31.1933    2.9526   29.6206 O   0  0  0  0  0  0  0  0  0  0  0  0
  -30.4342    2.4610   31.6009 O   0  0  0  0  0  0  0  0  0  0  0  0
  -28.2892   -2.1616   30.7179 C   0  0  0  0  0  0  0  0  0  0  0  0
  -27.4948   -2.9435   30.3449 O   0  0  0  0  0  0  0  0  0  0  0  0
  -28.6733   -2.1391   31.9656 O   0  0  0  0  0  0  0  0  0  0  0  0
  -30.8676    3.4162   32.2281 C   0  0  0  0  0  0  0  0  0  0  0  0
  -30.7278    3.3978   33.6645 C   0  0  0  0  0  0  0  0  0  0  0  0
  -31.2355    4.2736   34.6103 Cl  0  0  0  0  0  0  0  0  0  0  0  0
  -29.2783    3.3149   33.8386 F   0  0  0  0  0  0  0  0  0  0  0  0
  -30.9680    1.9907   34.0402 F   0  0  0  0  0  0  0  0  0  0  0  0
  -25.7757   -1.0783   27.4877 O   0  0  0  0  0  0  0  0  0  0  0  0
  -24.7247   -0.6709   28.2543 C   0  0  0  0  0  0  0  0  0  0  0  0
  -24.1272   -1.6770   29.0867 C   0  0  0  0  0  0  0  0  0  0  0  0
  -23.0561   -1.3374   29.7958 C   0  0  0  0  0  0  0  0  0  0  0  0
  -24.0935    0.5507   28.3050 C   0  0  0  0  0  0  0  0  0  0  0  0
  -23.0271    0.9153   29.0125 C   0  0  0  0  0  0  0  0  0  0  0  0
  -22.4370   -0.0997   29.7903 C   0  0  0  0  0  0  0  0  0  0  0  0
  3  4  1  0
  7 13  1  0
 13 14  2  0
 13 15  1  0
  2 16  1  0
 16 17  2  0
 16 18  1  0
 15 19  1  0
 19 20  1  0
 20 21  1  0
 20 22  1  0
 20 23  1  0
 12 24  1  0
 24 25  1  0
 25 26  2  0
 26 27  1  0
 27 30  2  0
 30 29  1  0
 29 28  2  0
 28 25  1  0
  4  5  2  0
  5  9  1  0
  9 10  2  0
 10 11  1  0
 11 12  2  0
 12  4  1  0
  1  2  2  0
  2  6  1  0
  6  7  2  0
  7  8  1  0
  8  3  2  0
  3  1  1  0
M  END

$$$$
