No_4353-gen_results/8p0m/2024-11-27-11-27-31/
     RDKit          3D

 16 18  0  0  0  0  0  0  0  0999 V2000
  -28.0162   -0.8135   28.8779 C   0  0  0  0  0  0  0  0  0  0  0  0
  -28.4690   -0.7850   29.8287 C   0  0  0  0  0  0  0  0  0  0  0  0
  -27.0871    0.2903   28.6377 C   0  0  0  0  0  0  0  0  0  0  0  0
  -26.8317    1.2487   29.5869 C   0  0  0  0  0  0  0  0  0  0  0  0
  -28.3914    0.0801   31.0065 C   0  0  0  0  0  0  0  0  0  0  0  0
  -27.4940    1.1521   30.7841 C   0  0  0  0  0  0  0  0  0  0  0  0
  -26.3172    0.3994   27.3653 C   0  0  0  0  0  0  0  0  0  0  0  0
  -25.4320    1.4867   27.2802 C   0  0  0  0  0  0  0  0  0  0  0  0
  -24.5070    1.5432   26.2743 C   0  0  0  0  0  0  0  0  0  0  0  0
  -23.4985    2.6837   26.2861 C   0  0  0  0  0  0  0  0  0  0  0  0
  -23.6668    3.5874   27.3249 C   0  0  0  0  0  0  0  0  0  0  0  0
  -25.1537    2.6392   28.1919 C   0  0  0  0  0  0  0  0  0  0  0  0
  -25.5313    3.1386   29.3035 C   0  0  0  0  0  0  0  0  0  0  0  0
  -26.0594    2.4653   29.6493 C   0  0  0  0  0  0  0  0  0  0  0  0
  -26.4502    3.1097   30.9377 C   0  0  0  0  0  0  0  0  0  0  0  0
  -25.9925    4.3745   31.5373 C   0  0  0  0  0  0  0  0  0  0  0  0
  3  7  1  0
  7  8  1  0
  8  9  2  0
  9 10  1  0
 10 11  2  0
  8 12  1  0
 11 12  1  0
 12 13  1  0
  4 14  1  0
 13 14  2  0
 14 15  1  0
 15 16  1  0
  1  2  2  0
  2  5  1  0
  5  6  2  0
  6  4  1  0
  4  3  2  0
  3  1  1  0
M  END

$$$$
