No_4828-gen_results/8p0m/2024-11-27-11-27-31/
     RDKit          3D

 17 18  0  0  0  0  0  0  0  0999 V2000
  -28.0162   -0.8135   28.8779 C   0  0  0  0  0  0  0  0  0  0  0  0
  -27.0636   -0.1189   28.6079 C   0  0  0  0  0  0  0  0  0  0  0  0
  -27.0010    0.6913   27.4910 C   0  0  0  0  0  0  0  0  0  0  0  0
  -28.1373    0.7363   26.6350 C   0  0  0  0  0  0  0  0  0  0  0  0
  -29.2360    0.0765   27.0690 C   0  0  0  0  0  0  0  0  0  0  0  0
  -29.2177   -0.6429   28.1747 C   0  0  0  0  0  0  0  0  0  0  0  0
  -28.0200   -1.8860   30.4510 Br  0  0  0  0  0  0  0  0  0  0  0  0
  -30.3556    0.1453   26.2464 N   0  0  0  0  0  0  0  0  0  0  0  0
  -25.9517   -0.2715   29.5618 N   0  0  0  0  0  0  0  0  0  0  0  0
  -25.6732    0.7452   30.4188 C   0  0  0  0  0  0  0  0  0  0  0  0
  -25.8157    1.7349   30.4497 C   0  0  0  0  0  0  0  0  0  0  0  0
  -25.6236    2.6323   29.5201 C   0  0  0  0  0  0  0  0  0  0  0  0
  -25.7457    4.1102   29.5821 C   0  0  0  0  0  0  0  0  0  0  0  0
  -25.9806    4.6276   30.8263 C   0  0  0  0  0  0  0  0  0  0  0  0
  -26.0655    3.8467   31.9587 C   0  0  0  0  0  0  0  0  0  0  0  0
  -25.9397    2.4834   31.8303 C   0  0  0  0  0  0  0  0  0  0  0  0
  -24.9001   -0.0456   31.5889 C   0  0  0  0  0  0  0  0  0  0  0  0
  1  7  1  0
  5  8  1  0
  2  9  1  0
  9 10  1  0
 10 11  1  0
 10 17  1  0
 11 12  2  0
 12 13  1  0
 13 14  2  0
 14 15  1  0
 15 16  2  0
 16 11  1  0
  1  2  2  0
  2  3  1  0
  3  4  2  0
  4  5  1  0
  5  6  2  0
  6  1  1  0
M  END

$$$$
