No_4879-gen_results/8p0m/2024-11-27-11-27-31/
     RDKit          3D

 35 35  0  0  0  0  0  0  0  0999 V2000
  -28.0162   -0.8135   28.8779 C   0  0  0  0  0  0  0  0  0  0  0  0
  -27.0636   -0.1190   28.6079 C   0  0  0  0  0  0  0  0  0  0  0  0
  -25.7647   -0.3897   29.0360 C   0  0  0  0  0  0  0  0  0  0  0  0
  -24.5516    0.4058   28.7646 C   0  0  0  0  0  0  0  0  0  0  0  0
  -24.6957    1.4480   27.7988 C   0  0  0  0  0  0  0  0  0  0  0  0
  -25.9755    1.7250   27.3077 C   0  0  0  0  0  0  0  0  0  0  0  0
  -27.0718    1.0134   27.6535 C   0  0  0  0  0  0  0  0  0  0  0  0
  -28.6178   -0.4695   30.2207 C   0  0  0  0  0  0  0  0  0  0  0  0
  -29.6528   -1.2461   30.6989 N   0  0  0  0  0  0  0  0  0  0  0  0
  -23.4871    2.1870   27.4841 C   0  0  0  0  0  0  0  0  0  0  0  0
  -23.6817    3.1992   26.7968 F   0  0  0  0  0  0  0  0  0  0  0  0
  -22.7465    2.5885   28.5459 F   0  0  0  0  0  0  0  0  0  0  0  0
  -22.5716    1.4236   26.7898 F   0  0  0  0  0  0  0  0  0  0  0  0
  -30.3841   -1.8275   30.0096 C   0  0  0  0  0  0  0  0  0  0  0  0
  -31.6333   -1.5892   30.2729 F   0  0  0  0  0  0  0  0  0  0  0  0
  -30.2689   -3.2922   30.2846 O   0  0  0  0  0  0  0  0  0  0  0  0
  -28.4021    1.3096   27.0471 C   0  0  0  0  0  0  0  0  0  0  0  0
  -28.7164    1.0409   25.9939 O   0  0  0  0  0  0  0  0  0  0  0  0
  -29.2679    1.8652   27.9170 O   0  0  0  0  0  0  0  0  0  0  0  0
  -25.4697   -1.4983   30.0162 C   0  0  0  0  0  0  0  0  0  0  0  0
  -24.5375   -2.7354   29.8192 Cl  0  0  0  0  0  0  0  0  0  0  0  0
  -30.8565   -4.2283   29.5277 C   0  0  0  0  0  0  0  0  0  0  0  0
  -30.3485   -5.5591   29.8754 C   0  0  0  0  0  0  0  0  0  0  0  0
  -29.8325   -5.5483   31.1728 C   0  0  0  0  0  0  0  0  0  0  0  0
  -29.5640   -6.5885   31.7814 O   0  0  0  0  0  0  0  0  0  0  0  0
  -31.0523   -4.0244   28.3086 F   0  0  0  0  0  0  0  0  0  0  0  0
  -29.7794   -1.2204   32.1793 C   0  0  0  0  0  0  0  0  0  0  0  0
  -28.5478   -1.3110   32.8294 C   0  0  0  0  0  0  0  0  0  0  0  0
  -28.5704   -1.1292   34.2756 C   0  0  0  0  0  0  0  0  0  0  0  0
  -27.5983    0.2554   34.8797 P   0  0  0  0  0  0  0  0  0  0  0  0
  -26.3856   -0.1248   35.0759 O   0  0  0  0  0  0  0  0  0  0  0  0
  -28.2539    0.7514   36.1354 O   0  0  0  0  0  0  0  0  0  0  0  0
  -27.8007    1.3035   33.7540 O   0  0  0  0  0  0  0  0  0  0  0  0
  -28.7305    1.9261   33.5409 F   0  0  0  0  0  0  0  0  0  0  0  0
  -25.4303   -1.1202   31.3634 O   0  0  0  0  0  0  0  0  0  0  0  0
  1  8  1  0
  8  9  1  0
  5 10  1  0
 10 11  1  0
 10 12  1  0
 10 13  1  0
  9 14  1  0
 14 15  1  0
 14 16  1  0
  7 17  1  0
 17 18  2  0
 17 19  1  0
  3 20  1  0
 20 21  1  0
 16 22  1  0
 22 23  1  0
 23 24  1  0
 24 25  2  0
 22 26  1  0
  9 27  1  0
 27 28  1  0
 28 29  1  0
 29 30  1  0
 30 31  2  0
 30 32  1  0
 30 33  1  0
 33 34  1  0
 20 35  1  0
  1  2  1  0
  2  3  2  0
  3  4  1  0
  4  5  2  0
  5  6  1  0
  6  7  2  0
  7  2  1  0
M  END

$$$$
