No_4460-gen_results/8p0m/2024-11-27-11-27-31/
     RDKit          3D

 28 30  0  0  0  0  0  0  0  0999 V2000
  -28.0162   -0.8135   28.8779 C   0  0  0  0  0  0  0  0  0  0  0  0
  -28.4690   -0.7850   29.8287 C   0  0  0  0  0  0  0  0  0  0  0  0
  -27.0871    0.2903   28.6377 C   0  0  0  0  0  0  0  0  0  0  0  0
  -26.2516    0.4114   27.4223 C   0  0  0  0  0  0  0  0  0  0  0  0
  -28.3141   -0.1267   30.7102 C   0  0  0  0  0  0  0  0  0  0  0  0
  -27.4825    1.0076   30.8097 C   0  0  0  0  0  0  0  0  0  0  0  0
  -26.7770    1.1718   29.6871 C   0  0  0  0  0  0  0  0  0  0  0  0
  -24.9531    0.3511   27.6693 C   0  0  0  0  0  0  0  0  0  0  0  0
  -24.3283    0.9789   28.7728 C   0  0  0  0  0  0  0  0  0  0  0  0
  -25.2990    1.3769   29.8280 C   0  0  0  0  0  0  0  0  0  0  0  0
  -22.9618    1.3830   28.7596 C   0  0  0  0  0  0  0  0  0  0  0  0
  -22.1146    1.0163   29.4399 O   0  0  0  0  0  0  0  0  0  0  0  0
  -22.5808    2.2657   27.7325 O   0  0  0  0  0  0  0  0  0  0  0  0
  -24.7397    2.1818   30.9505 C   0  0  0  0  0  0  0  0  0  0  0  0
  -23.8052    2.8063   31.0421 O   0  0  0  0  0  0  0  0  0  0  0  0
  -25.6872    2.4324   31.9495 O   0  0  0  0  0  0  0  0  0  0  0  0
  -25.4501    3.5433   32.7097 C   0  0  0  0  0  0  0  0  0  0  0  0
  -26.4309    4.6535   32.4837 C   0  0  0  0  0  0  0  0  0  0  0  0
  -27.3960    4.2793   31.9813 F   0  0  0  0  0  0  0  0  0  0  0  0
  -26.7199    5.1844   33.7513 F   0  0  0  0  0  0  0  0  0  0  0  0
  -25.8438    5.6586   31.8308 F   0  0  0  0  0  0  0  0  0  0  0  0
  -26.8544    0.5606   26.1800 C   0  0  0  0  0  0  0  0  0  0  0  0
  -27.9640    1.2300   25.9225 C   0  0  0  0  0  0  0  0  0  0  0  0
  -26.3607   -0.3583   25.1478 C   0  0  0  0  0  0  0  0  0  0  0  0
  -28.7113    1.1647   24.8030 C   0  0  0  0  0  0  0  0  0  0  0  0
  -27.0512   -0.3774   23.9879 N   0  0  0  0  0  0  0  0  0  0  0  0
  -28.1781    0.3405   23.8191 C   0  0  0  0  0  0  0  0  0  0  0  0
  -28.5050    2.0217   26.9333 F   0  0  0  0  0  0  0  0  0  0  0  0
  9 11  1  0
 11 12  2  0
 11 13  1  0
 10 14  1  0
 14 15  2  0
 14 16  1  0
 16 17  1  0
 17 18  1  0
 18 19  1  0
 18 20  1  0
 18 21  1  0
  4 22  1  0
 23 28  1  0
 22 23  2  0
 23 25  1  0
 25 27  2  0
 27 26  1  0
 26 24  2  0
 24 22  1  0
  1  2  2  0
  2  5  1  0
  5  6  2  0
  6  7  1  0
  3  1  1  0
  3  4  2  0
  4  8  1  0
  8  9  2  0
  9 10  1  0
 10  7  2  0
  7  3  1  0
M  END

$$$$
