No_4481-gen_results/8p0m/2024-11-27-11-27-31/
     RDKit          3D

 14 15  0  0  0  0  0  0  0  0999 V2000
  -28.0162   -0.8135   28.8779 C   0  0  0  0  0  0  0  0  0  0  0  0
  -27.0636   -0.1190   28.6079 C   0  0  0  0  0  0  0  0  0  0  0  0
  -25.7923   -0.4302   29.0761 C   0  0  0  0  0  0  0  0  0  0  0  0
  -25.2700   -0.0487   30.0123 C   0  0  0  0  0  0  0  0  0  0  0  0
  -29.2965   -0.1838   28.9398 C   0  0  0  0  0  0  0  0  0  0  0  0
  -29.5648    0.8003   28.0352 C   0  0  0  0  0  0  0  0  0  0  0  0
  -28.4695    1.4413   27.4238 C   0  0  0  0  0  0  0  0  0  0  0  0
  -27.1368    1.0792   27.7975 C   0  0  0  0  0  0  0  0  0  0  0  0
  -23.8989   -0.3559   30.5250 C   0  0  0  0  0  0  0  0  0  0  0  0
  -23.1075   -1.1950   29.7370 C   0  0  0  0  0  0  0  0  0  0  0  0
  -23.6421   -1.6781   28.5918 C   0  0  0  0  0  0  0  0  0  0  0  0
  -24.9086   -1.3299   28.1894 C   0  0  0  0  0  0  0  0  0  0  0  0
  -30.9046    1.2986   27.7729 C   0  0  0  0  0  0  0  0  0  0  0  0
  -31.7532    1.2596   28.5904 N   0  0  0  0  0  0  0  0  0  0  0  0
  2  3  1  0
  6 13  1  0
 13 14  2  0
  1  2  2  0
  2  8  1  0
  8  7  2  0
  7  6  1  0
  6  5  2  0
  5  1  1  0
  3  4  2  0
  4  9  1  0
  9 10  2  0
 10 11  1  0
 11 12  2  0
 12  3  1  0
M  END

$$$$
