No_4209-gen_results/8p0m/2024-11-27-11-27-31/
     RDKit          3D

 16 17  0  0  0  0  0  0  0  0999 V2000
  -28.0162   -0.8135   28.8779 C   0  0  0  0  0  0  0  0  0  0  0  0
  -28.4690   -0.7850   29.8287 C   0  0  0  0  0  0  0  0  0  0  0  0
  -28.1960    0.3478   28.0550 C   0  0  0  0  0  0  0  0  0  0  0  0
  -29.0191    1.3501   28.3782 C   0  0  0  0  0  0  0  0  0  0  0  0
  -29.6249    1.2683   29.6012 C   0  0  0  0  0  0  0  0  0  0  0  0
  -29.3821    0.1816   30.4004 C   0  0  0  0  0  0  0  0  0  0  0  0
  -27.4497    0.3750   26.7070 C   0  0  0  0  0  0  0  0  0  0  0  0
  -25.9700    0.4005   26.7757 C   0  0  0  0  0  0  0  0  0  0  0  0
  -25.3165   -0.0840   27.8632 C   0  0  0  0  0  0  0  0  0  0  0  0
  -23.9164    0.0469   27.9630 C   0  0  0  0  0  0  0  0  0  0  0  0
  -23.1852   -0.4724   29.1031 C   0  0  0  0  0  0  0  0  0  0  0  0
  -23.7485   -1.6004   29.7236 C   0  0  0  0  0  0  0  0  0  0  0  0
  -25.0874   -1.9405   29.5009 C   0  0  0  0  0  0  0  0  0  0  0  0
  -25.8135   -1.2475   28.6005 C   0  0  0  0  0  0  0  0  0  0  0  0
  -27.1829   -1.2766   28.6375 C   0  0  0  0  0  0  0  0  0  0  0  0
  -25.5243   -2.2194   27.6560 O   0  0  0  0  0  0  0  0  0  0  0  0
  3  7  1  0
  7  8  1  0
  8  9  2  3
  9 10  1  0
 10 11  1  0
 11 12  2  3
 12 13  1  0
 13 14  2  3
  1 15  1  0
 14 15  1  0
 14 16  1  0
  1  2  2  0
  2  6  1  0
  6  5  2  0
  5  4  1  0
  4  3  2  0
  3  1  1  0
M  END

$$$$
