No_4860-gen_results/8p0m/2024-11-27-11-27-31/
     RDKit          3D

 21 23  0  0  0  0  0  0  0  0999 V2000
  -28.0162   -0.8135   28.8779 C   0  0  0  0  0  0  0  0  0  0  0  0
  -27.0636   -0.1190   28.6079 C   0  0  0  0  0  0  0  0  0  0  0  0
  -25.7647   -0.3897   29.0360 C   0  0  0  0  0  0  0  0  0  0  0  0
  -25.5296   -1.5302   29.9014 C   0  0  0  0  0  0  0  0  0  0  0  0
  -26.6577   -2.2915   30.2035 C   0  0  0  0  0  0  0  0  0  0  0  0
  -27.8548   -1.9555   29.7630 C   0  0  0  0  0  0  0  0  0  0  0  0
  -24.5349    0.4128   28.7431 C   0  0  0  0  0  0  0  0  0  0  0  0
  -24.4835    1.2431   27.7398 C   0  0  0  0  0  0  0  0  0  0  0  0
  -23.2788    1.9376   27.4159 C   0  0  0  0  0  0  0  0  0  0  0  0
  -22.0791    1.6509   28.0212 C   0  0  0  0  0  0  0  0  0  0  0  0
  -23.2748    0.1108   29.4386 C   0  0  0  0  0  0  0  0  0  0  0  0
  -22.0811    0.7712   29.0649 C   0  0  0  0  0  0  0  0  0  0  0  0
  -29.0182   -2.7946   30.1855 C   0  0  0  0  0  0  0  0  0  0  0  0
  -30.0561   -2.5165   30.0123 O   0  0  0  0  0  0  0  0  0  0  0  0
  -28.6484   -3.9857   30.8535 N   0  0  0  0  0  0  0  0  0  0  0  0
  -29.6637   -4.9711   31.2353 C   0  0  0  0  0  0  0  0  0  0  0  0
  -29.4931   -5.3989   32.4930 C   0  0  0  0  0  0  0  0  0  0  0  0
  -30.1897   -6.7174   32.7047 C   0  0  0  0  0  0  0  0  0  0  0  0
  -30.9004   -7.2592   31.6168 C   0  0  0  0  0  0  0  0  0  0  0  0
  -30.9677   -6.7072   30.4016 C   0  0  0  0  0  0  0  0  0  0  0  0
  -30.1939   -5.5462   30.1852 C   0  0  0  0  0  0  0  0  0  0  0  0
  3  7  1  0
  6 13  1  0
 13 14  2  0
 13 15  1  0
 15 16  1  0
  7  8  2  0
  8  9  1  0
  9 10  2  0
 10 12  1  0
 12 11  2  0
 11  7  1  0
  1  2  2  0
  2  3  1  0
  3  4  2  0
  4  5  1  0
  5  6  2  0
  6  1  1  0
 16 17  2  0
 17 18  1  0
 18 19  2  0
 19 20  1  0
 20 21  2  0
 21 16  1  0
M  END

$$$$
