No_4959-gen_results/8p0m/2024-11-27-11-27-31/
     RDKit          3D

 11 11  0  0  0  0  0  0  0  0999 V2000
  -28.0727   -1.2542   28.5316 F   0  0  0  0  0  0  0  0  0  0  0  0
  -27.3591   -0.3792   28.7224 C   0  0  0  0  0  0  0  0  0  0  0  0
  -26.8100    0.1885   27.6513 C   0  0  0  0  0  0  0  0  0  0  0  0
  -27.4896    0.3508   26.4426 C   0  0  0  0  0  0  0  0  0  0  0  0
  -28.8357    0.3604   26.4534 C   0  0  0  0  0  0  0  0  0  0  0  0
  -29.3699    0.2272   25.1800 C   0  0  0  0  0  0  0  0  0  0  0  0
  -28.5739    0.2390   24.0351 C   0  0  0  0  0  0  0  0  0  0  0  0
  -27.2305    0.2741   24.1229 C   0  0  0  0  0  0  0  0  0  0  0  0
  -26.6339    0.2706   25.3909 C   0  0  0  0  0  0  0  0  0  0  0  0
  -27.8361    0.6188   29.4711 F   0  0  0  0  0  0  0  0  0  0  0  0
  -25.5413   -0.4905   27.4492 F   0  0  0  0  0  0  0  0  0  0  0  0
  1  2  1  0
  2  3  2  3
  3  4  1  0
  2 10  1  0
  3 11  1  0
  4  5  2  0
  5  6  1  0
  6  7  2  0
  7  8  1  0
  8  9  2  0
  9  4  1  0
M  END

$$$$
