No_4970-gen_results/8p0m/2024-11-27-11-27-31/
     RDKit          3D

 13 14  0  0  0  0  0  0  0  0999 V2000
  -28.0162   -0.8135   28.8779 C   0  0  0  0  0  0  0  0  0  0  0  0
  -28.4690   -0.7850   29.8287 C   0  0  0  0  0  0  0  0  0  0  0  0
  -27.1356    0.2359   28.5352 C   0  0  0  0  0  0  0  0  0  0  0  0
  -26.8050    1.0509   29.2763 C   0  0  0  0  0  0  0  0  0  0  0  0
  -28.2372    0.1503   30.9300 C   0  0  0  0  0  0  0  0  0  0  0  0
  -27.3522    1.1239   30.6071 C   0  0  0  0  0  0  0  0  0  0  0  0
  -26.4616    0.1962   27.1371 C   0  0  0  0  0  0  0  0  0  0  0  0
  -27.0265    0.7893   26.1613 C   0  0  0  0  0  0  0  0  0  0  0  0
  -26.4096    0.6861   24.8435 C   0  0  0  0  0  0  0  0  0  0  0  0
  -25.1119    0.1370   24.7456 C   0  0  0  0  0  0  0  0  0  0  0  0
  -24.5084   -0.2403   25.9238 C   0  0  0  0  0  0  0  0  0  0  0  0
  -25.1127   -0.3716   27.0759 C   0  0  0  0  0  0  0  0  0  0  0  0
  -24.4443   -0.8937   28.2361 C   0  0  0  0  0  0  0  0  0  0  0  0
  3  7  1  0
 12 13  1  0
  1  2  2  0
  2  5  1  0
  5  6  2  0
  6  4  1  0
  4  3  2  0
  3  1  1  0
  7  8  2  0
  8  9  1  0
  9 10  2  0
 10 11  1  0
 11 12  2  0
 12  7  1  0
M  END

$$$$
