No_4900-gen_results/8p0m/2024-11-27-11-27-31/
     RDKit          3D

 17 19  0  0  0  0  0  0  0  0999 V2000
  -28.0162   -0.8135   28.8779 C   0  0  0  0  0  0  0  0  0  0  0  0
  -27.0636   -0.1189   28.6079 C   0  0  0  0  0  0  0  0  0  0  0  0
  -27.0010    0.6913   27.4910 C   0  0  0  0  0  0  0  0  0  0  0  0
  -28.1373    0.7363   26.6350 C   0  0  0  0  0  0  0  0  0  0  0  0
  -29.2360    0.0765   27.0690 C   0  0  0  0  0  0  0  0  0  0  0  0
  -29.2177   -0.6429   28.1747 C   0  0  0  0  0  0  0  0  0  0  0  0
  -30.3134    0.1603   26.2891 F   0  0  0  0  0  0  0  0  0  0  0  0
  -25.7101   -0.1791   29.3956 C   0  0  0  0  0  0  0  0  0  0  0  0
  -24.5948    0.2443   28.9590 C   0  0  0  0  0  0  0  0  0  0  0  0
  -23.3492    0.1783   29.6591 C   0  0  0  0  0  0  0  0  0  0  0  0
  -22.1168    0.7043   29.1495 C   0  0  0  0  0  0  0  0  0  0  0  0
  -22.0608    1.3338   27.9256 C   0  0  0  0  0  0  0  0  0  0  0  0
  -23.2410    1.5523   27.2243 C   0  0  0  0  0  0  0  0  0  0  0  0
  -24.4715    1.0281   27.6887 C   0  0  0  0  0  0  0  0  0  0  0  0
  -25.7042    1.2513   26.9921 C   0  0  0  0  0  0  0  0  0  0  0  0
  -25.7480   -1.1752   30.8029 Cl  0  0  0  0  0  0  0  0  0  0  0  0
  -25.7230    1.9621   25.9219 O   0  0  0  0  0  0  0  0  0  0  0  0
  5  7  1  0
  2  8  1  0
  3 15  1  0
 14 15  1  0
  8 16  1  0
 15 17  2  0
  8  9  1  0
  1  2  2  0
  2  3  1  0
  3  4  2  0
  4  5  1  0
  5  6  2  0
  6  1  1  0
  9 10  2  0
 10 11  1  0
 11 12  2  0
 12 13  1  0
 13 14  2  0
 14  9  1  0
M  END

$$$$
