No_4963-gen_results/8p0m/2024-11-27-11-27-31/
     RDKit          3D

 14 15  0  0  0  0  0  0  0  0999 V2000
  -28.0162   -0.8135   28.8779 C   0  0  0  0  0  0  0  0  0  0  0  0
  -28.4690   -0.7850   29.8287 C   0  0  0  0  0  0  0  0  0  0  0  0
  -27.2166   -0.0832   27.9639 C   0  0  0  0  0  0  0  0  0  0  0  0
  -27.0905    1.2695   28.4177 C   0  0  0  0  0  0  0  0  0  0  0  0
  -27.6489    1.6414   29.6472 C   0  0  0  0  0  0  0  0  0  0  0  0
  -28.3267    0.6206   30.4049 C   0  0  0  0  0  0  0  0  0  0  0  0
  -26.3407    2.2685   27.6519 C   0  0  0  0  0  0  0  0  0  0  0  0
  -24.9457    2.1693   27.8349 C   0  0  0  0  0  0  0  0  0  0  0  0
  -24.0695    2.4439   26.7911 C   0  0  0  0  0  0  0  0  0  0  0  0
  -22.6059    2.2923   26.9964 C   0  0  0  0  0  0  0  0  0  0  0  0
  -22.2046    1.4210   27.9349 C   0  0  0  0  0  0  0  0  0  0  0  0
  -23.0565    1.0503   28.9510 C   0  0  0  0  0  0  0  0  0  0  0  0
  -24.4209    1.3782   28.9218 C   0  0  0  0  0  0  0  0  0  0  0  0
  -26.6447   -0.3735   26.8978 F   0  0  0  0  0  0  0  0  0  0  0  0
  4  7  1  0
  7  8  1  0
  3 14  1  0
  1  2  2  0
  2  6  1  0
  6  5  2  0
  5  4  1  0
  4  3  2  0
  3  1  1  0
  8  9  2  0
  9 10  1  0
 10 11  2  0
 11 12  1  0
 12 13  2  0
 13  8  1  0
M  END

$$$$
