No_4832-gen_results/8p0m/2024-11-27-11-27-31/
     RDKit          3D

 11 11  0  0  0  0  0  0  0  0999 V2000
  -28.0162   -0.8135   28.8779 C   0  0  0  0  0  0  0  0  0  0  0  0
  -28.4690   -0.7850   29.8287 C   0  0  0  0  0  0  0  0  0  0  0  0
  -28.7063   -0.5182   27.8769 F   0  0  0  0  0  0  0  0  0  0  0  0
  -26.5857   -0.9572   28.6898 C   0  0  0  0  0  0  0  0  0  0  0  0
  -25.7973   -1.4978   29.7457 C   0  0  0  0  0  0  0  0  0  0  0  0
  -27.7774   -1.3235   31.1489 C   0  0  0  0  0  0  0  0  0  0  0  0
  -26.3941   -1.5854   31.0152 C   0  0  0  0  0  0  0  0  0  0  0  0
  -24.3715   -1.7529   29.5999 C   0  0  0  0  0  0  0  0  0  0  0  0
  -23.3944   -0.7162   29.8108 C   0  0  0  0  0  0  0  0  0  0  0  0
  -22.2248   -0.7033   29.1558 C   0  0  0  0  0  0  0  0  0  0  0  0
  -23.7563    0.3992   30.6576 C   0  0  0  0  0  0  0  0  0  0  0  0
  1  3  1  0
  5  8  1  0
  8  9  1  0
  9 10  2  0
  9 11  1  0
  1  2  2  0
  2  6  1  0
  6  7  2  0
  7  5  1  0
  5  4  2  0
  4  1  1  0
M  END

$$$$
