No_4786-gen_results/8p0m/2024-11-27-11-27-31/
     RDKit          3D

 13 13  0  0  0  0  0  0  0  0999 V2000
  -28.0162   -0.8135   28.8779 C   0  0  0  0  0  0  0  0  0  0  0  0
  -28.4690   -0.7850   29.8287 C   0  0  0  0  0  0  0  0  0  0  0  0
  -28.1960    0.3478   28.0550 C   0  0  0  0  0  0  0  0  0  0  0  0
  -29.0191    1.3501   28.3782 C   0  0  0  0  0  0  0  0  0  0  0  0
  -29.6249    1.2683   29.6012 C   0  0  0  0  0  0  0  0  0  0  0  0
  -29.3821    0.1816   30.4004 C   0  0  0  0  0  0  0  0  0  0  0  0
  -27.4497    0.3750   26.7070 C   0  0  0  0  0  0  0  0  0  0  0  0
  -25.9700    0.4005   26.7757 C   0  0  0  0  0  0  0  0  0  0  0  0
  -25.3165   -0.0840   27.8631 C   0  0  0  0  0  0  0  0  0  0  0  0
  -23.9164    0.0469   27.9630 C   0  0  0  0  0  0  0  0  0  0  0  0
  -23.1852   -0.4724   29.1031 C   0  0  0  0  0  0  0  0  0  0  0  0
  -23.8722   -1.4178   29.9033 C   0  0  0  0  0  0  0  0  0  0  0  0
  -25.2149   -1.7056   29.7318 C   0  0  0  0  0  0  0  0  0  0  0  0
  3  7  1  0
  7  8  1  0
  8  9  2  3
  9 10  1  0
 10 11  2  3
 11 12  1  0
 12 13  2  0
  1  2  2  0
  2  6  1  0
  6  5  2  0
  5  4  1  0
  4  3  2  0
  3  1  1  0
M  END

$$$$
