No_4789-gen_results/8p0m/2024-11-27-11-27-31/
     RDKit          3D

 15 15  0  0  0  0  0  0  0  0999 V2000
  -28.0162   -0.8135   28.8779 C   0  0  0  0  0  0  0  0  0  0  0  0
  -28.4690   -0.7850   29.8287 C   0  0  0  0  0  0  0  0  0  0  0  0
  -27.1356    0.2359   28.5352 C   0  0  0  0  0  0  0  0  0  0  0  0
  -26.8745    1.2825   29.3982 C   0  0  0  0  0  0  0  0  0  0  0  0
  -28.3613    0.1987   30.9244 C   0  0  0  0  0  0  0  0  0  0  0  0
  -27.5277    1.2234   30.6356 C   0  0  0  0  0  0  0  0  0  0  0  0
  -26.3987    0.2949   27.2279 C   0  0  0  0  0  0  0  0  0  0  0  0
  -26.2345    1.5269   26.9600 F   0  0  0  0  0  0  0  0  0  0  0  0
  -25.2362   -0.3484   27.3099 F   0  0  0  0  0  0  0  0  0  0  0  0
  -27.1496   -0.2082   26.2061 F   0  0  0  0  0  0  0  0  0  0  0  0
  -29.3108   -1.9018   30.2677 O   0  0  0  0  0  0  0  0  0  0  0  0
  -28.8416   -3.1617   30.5441 C   0  0  0  0  0  0  0  0  0  0  0  0
  -29.7786   -4.2020   30.2869 C   0  0  0  0  0  0  0  0  0  0  0  0
  -30.2618   -4.3842   29.2793 O   0  0  0  0  0  0  0  0  0  0  0  0
  -29.5914   -5.3143   31.1598 O   0  0  0  0  0  0  0  0  0  0  0  0
  3  7  1  0
  7  8  1  0
  7  9  1  0
  7 10  1  0
  2 11  1  0
 11 12  1  0
 12 13  2  3
 13 14  1  0
 13 15  1  0
  1  2  2  0
  2  5  1  0
  5  6  2  0
  6  4  1  0
  4  3  2  0
  3  1  1  0
M  END

$$$$
