No_4902-gen_results/8p0m/2024-11-27-11-27-31/
     RDKit          3D

 15 16  0  0  0  0  0  0  0  0999 V2000
  -28.0162   -0.8135   28.8779 C   0  0  0  0  0  0  0  0  0  0  0  0
  -28.4690   -0.7850   29.8287 C   0  0  0  0  0  0  0  0  0  0  0  0
  -27.1356    0.2359   28.5352 C   0  0  0  0  0  0  0  0  0  0  0  0
  -26.8745    1.2825   29.3982 C   0  0  0  0  0  0  0  0  0  0  0  0
  -28.3613    0.1987   30.9244 C   0  0  0  0  0  0  0  0  0  0  0  0
  -27.5277    1.2234   30.6356 C   0  0  0  0  0  0  0  0  0  0  0  0
  -26.3987    0.2949   27.2279 C   0  0  0  0  0  0  0  0  0  0  0  0
  -25.0392    0.2356   27.3538 C   0  0  0  0  0  0  0  0  0  0  0  0
  -27.0287    0.3958   26.0087 C   0  0  0  0  0  0  0  0  0  0  0  0
  -26.2725    0.3047   24.8644 C   0  0  0  0  0  0  0  0  0  0  0  0
  -24.3337    0.0777   28.6100 C   0  0  0  0  0  0  0  0  0  0  0  0
  -23.3602    0.8538   28.9697 C   0  0  0  0  0  0  0  0  0  0  0  0
  -22.8982    1.9197   28.0203 C   0  0  0  0  0  0  0  0  0  0  0  0
  -23.4866    2.0386   26.7728 C   0  0  0  0  0  0  0  0  0  0  0  0
  -24.4312    1.2203   26.3980 C   0  0  0  0  0  0  0  0  0  0  0  0
  3  7  1  0
  7  8  1  0
  7  9  1  0
  9 10  1  0
  8 11  2  0
 11 12  1  0
 12 13  2  0
 13 14  1  0
 14 15  2  0
 15  8  1  0
  1  2  2  0
  2  5  1  0
  5  6  2  0
  6  4  1  0
  4  3  2  0
  3  1  1  0
M  END

$$$$
