No_4499-gen_results/8p0m/2024-11-27-11-27-31/
     RDKit          3D

 30 32  0  0  0  0  0  0  0  0999 V2000
  -28.0162   -0.8135   28.8779 C   0  0  0  0  0  0  0  0  0  0  0  0
  -27.0636   -0.1189   28.6079 C   0  0  0  0  0  0  0  0  0  0  0  0
  -25.7647   -0.3897   29.0360 C   0  0  0  0  0  0  0  0  0  0  0  0
  -24.5517    0.4058   28.7646 C   0  0  0  0  0  0  0  0  0  0  0  0
  -24.6957    1.4480   27.7988 C   0  0  0  0  0  0  0  0  0  0  0  0
  -26.0010    1.6784   27.2965 C   0  0  0  0  0  0  0  0  0  0  0  0
  -27.0736    0.9682   27.6500 C   0  0  0  0  0  0  0  0  0  0  0  0
  -28.6424   -0.4818   30.1960 C   0  0  0  0  0  0  0  0  0  0  0  0
  -28.2929    0.5574   30.7802 C   0  0  0  0  0  0  0  0  0  0  0  0
  -28.9636    0.9047   32.1205 C   0  0  0  0  0  0  0  0  0  0  0  0
  -23.5103    2.2027   27.4478 C   0  0  0  0  0  0  0  0  0  0  0  0
  -22.4943    1.9234   26.9161 N   0  0  0  0  0  0  0  0  0  0  0  0
  -29.8977    0.0144   32.5986 C   0  0  0  0  0  0  0  0  0  0  0  0
  -29.6443   -1.3932   30.7839 C   0  0  0  0  0  0  0  0  0  0  0  0
  -30.2355   -1.1289   31.9623 C   0  0  0  0  0  0  0  0  0  0  0  0
  -23.7098    3.5527   27.5874 O   0  0  0  0  0  0  0  0  0  0  0  0
  -25.4827   -1.2976   29.9442 F   0  0  0  0  0  0  0  0  0  0  0  0
  -28.2791    1.3382   27.0698 N   0  0  0  0  0  0  0  0  0  0  0  0
  -28.5120    1.9456   26.0018 C   0  0  0  0  0  0  0  0  0  0  0  0
  -29.7737    2.1581   25.5689 C   0  0  0  0  0  0  0  0  0  0  0  0
  -30.5464    2.8226   26.2486 C   0  0  0  0  0  0  0  0  0  0  0  0
  -30.1363    3.4351   27.4105 C   0  0  0  0  0  0  0  0  0  0  0  0
  -31.1543    3.7188   28.3700 C   0  0  0  0  0  0  0  0  0  0  0  0
  -30.8263    4.1443   29.7166 C   0  0  0  0  0  0  0  0  0  0  0  0
  -29.4746    4.4609   29.9803 C   0  0  0  0  0  0  0  0  0  0  0  0
  -28.5116    4.2656   29.0132 C   0  0  0  0  0  0  0  0  0  0  0  0
  -28.8539    3.7368   27.7858 C   0  0  0  0  0  0  0  0  0  0  0  0
  -27.1103    4.5778   29.4119 C   0  0  0  0  0  0  0  0  0  0  0  0
  -26.3867    5.1270   28.5275 O   0  0  0  0  0  0  0  0  0  0  0  0
  -26.7323    4.6228   30.6706 O   0  0  0  0  0  0  0  0  0  0  0  0
  1  8  1  0
  5 11  1  0
 11 12  2  0
 11 16  1  0
  3 17  1  0
  7 18  1  0
 18 19  1  0
 19 20  2  3
 20 21  1  0
 21 22  1  0
 26 28  1  0
 28 29  2  0
 28 30  1  0
  1  2  1  0
  2  3  2  0
  3  4  1  0
  4  5  2  0
  5  6  1  0
  6  7  2  0
  7  2  1  0
 22 23  2  0
 23 24  1  0
 24 25  2  0
 25 26  1  0
 26 27  2  0
 27 22  1  0
  8  9  2  0
  9 10  1  0
 10 13  2  0
 13 15  1  0
 15 14  2  0
 14  8  1  0
M  END

$$$$
