No_4851-gen_results/8p0m/2024-11-27-11-27-31/
     RDKit          3D

 15 17  0  0  0  0  0  0  0  0999 V2000
  -28.0162   -0.8135   28.8779 C   0  0  0  0  0  0  0  0  0  0  0  0
  -28.4690   -0.7850   29.8287 C   0  0  0  0  0  0  0  0  0  0  0  0
  -26.5042   -0.7777   28.8766 C   0  0  0  0  0  0  0  0  0  0  0  0
  -25.8103   -0.8531   30.1028 C   0  0  0  0  0  0  0  0  0  0  0  0
  -27.9906   -0.8916   31.2257 C   0  0  0  0  0  0  0  0  0  0  0  0
  -26.6042   -0.8676   31.2652 C   0  0  0  0  0  0  0  0  0  0  0  0
  -24.3894   -0.8049   30.1638 C   0  0  0  0  0  0  0  0  0  0  0  0
  -23.7660   -0.9500   31.0679 C   0  0  0  0  0  0  0  0  0  0  0  0
  -23.6669   -0.5949   28.8837 C   0  0  0  0  0  0  0  0  0  0  0  0
  -22.2646   -0.4068   28.9326 C   0  0  0  0  0  0  0  0  0  0  0  0
  -22.2742   -0.8313   31.2874 C   0  0  0  0  0  0  0  0  0  0  0  0
  -21.5985   -0.5272   30.1004 C   0  0  0  0  0  0  0  0  0  0  0  0
  -29.9211   -0.7879   29.8384 F   0  0  0  0  0  0  0  0  0  0  0  0
  -25.7319   -0.7508   27.6317 C   0  0  0  0  0  0  0  0  0  0  0  0
  -24.3997   -0.5225   27.7382 N   0  0  0  0  0  0  0  0  0  0  0  0
  2 13  1  0
  4  7  2  0
  9 15  2  0
 15 14  1  0
 14  3  2  0
  7  8  1  0
  8 11  2  0
 11 12  1  0
 12 10  2  0
 10  9  1  0
  9  7  1  0
  1  2  2  0
  2  5  1  0
  5  6  2  0
  6  4  1  0
  4  3  1  0
  3  1  1  0
M  END

$$$$
