No_4753-gen_results/8p0m/2024-11-27-11-27-31/
     RDKit          3D

  8  7  0  0  0  0  0  0  0  0999 V2000
  -28.0727   -1.2542   28.5316 F   0  0  0  0  0  0  0  0  0  0  0  0
  -27.3591   -0.3792   28.7224 C   0  0  0  0  0  0  0  0  0  0  0  0
  -26.8100    0.1885   27.6513 C   0  0  0  0  0  0  0  0  0  0  0  0
  -26.3421   -0.8771   29.5718 F   0  0  0  0  0  0  0  0  0  0  0  0
  -27.9219    0.5452   29.5548 F   0  0  0  0  0  0  0  0  0  0  0  0
  -27.4018    0.4963   26.5417 N   0  0  0  0  0  0  0  0  0  0  0  0
  -25.3216    0.6456   27.5724 C   0  0  0  0  0  0  0  0  0  0  0  0
  -24.4390    0.2905   28.5652 C   0  0  0  0  0  0  0  0  0  0  0  0
  1  2  1  0
  2  3  1  0
  2  4  1  0
  2  5  1  0
  3  6  1  0
  3  7  1  0
  7  8  2  0
M  END

$$$$
