No_4593-gen_results/8p0m/2024-11-27-11-27-31/
     RDKit          3D

 15 16  0  0  0  0  0  0  0  0999 V2000
  -28.0162   -0.8135   28.8779 C   0  0  0  0  0  0  0  0  0  0  0  0
  -27.0636   -0.1189   28.6079 C   0  0  0  0  0  0  0  0  0  0  0  0
  -27.0010    0.6913   27.4910 C   0  0  0  0  0  0  0  0  0  0  0  0
  -25.8548    1.4825   27.0830 C   0  0  0  0  0  0  0  0  0  0  0  0
  -24.6901    1.4526   27.8807 C   0  0  0  0  0  0  0  0  0  0  0  0
  -24.7379    0.6010   29.0416 C   0  0  0  0  0  0  0  0  0  0  0  0
  -25.8234   -0.1688   29.3887 C   0  0  0  0  0  0  0  0  0  0  0  0
  -29.2252   -0.0469   29.2805 C   0  0  0  0  0  0  0  0  0  0  0  0
  -30.3126   -0.8267   29.7606 C   0  0  0  0  0  0  0  0  0  0  0  0
  -30.0171   -1.9937   30.4009 C   0  0  0  0  0  0  0  0  0  0  0  0
  -28.8140   -2.6800   30.2918 C   0  0  0  0  0  0  0  0  0  0  0  0
  -27.7792   -2.0108   29.7150 C   0  0  0  0  0  0  0  0  0  0  0  0
  -23.5017    2.2217   27.5651 C   0  0  0  0  0  0  0  0  0  0  0  0
  -23.6836    3.2962   27.0225 F   0  0  0  0  0  0  0  0  0  0  0  0
  -22.3469    1.7231   27.5658 F   0  0  0  0  0  0  0  0  0  0  0  0
  1  2  1  0
  5 13  1  0
 13 14  1  0
 13 15  1  0
  2  3  2  0
  3  4  1  0
  4  5  2  0
  5  6  1  0
  6  7  2  0
  7  2  1  0
  1  8  2  0
  8  9  1  0
  9 10  2  0
 10 11  1  0
 11 12  2  0
 12  1  1  0
M  END

$$$$
