No_4330-gen_results/8p0m/2024-11-27-11-27-31/
     RDKit          3D

 22 24  0  0  0  0  0  0  0  0999 V2000
  -28.0162   -0.8135   28.8779 C   0  0  0  0  0  0  0  0  0  0  0  0
  -27.0636   -0.1190   28.6079 C   0  0  0  0  0  0  0  0  0  0  0  0
  -25.7923   -0.4302   29.0761 C   0  0  0  0  0  0  0  0  0  0  0  0
  -25.5756   -1.5654   29.9363 C   0  0  0  0  0  0  0  0  0  0  0  0
  -26.7354   -2.3004   30.2173 C   0  0  0  0  0  0  0  0  0  0  0  0
  -27.9184   -1.9537   29.7629 C   0  0  0  0  0  0  0  0  0  0  0  0
  -27.1057    1.1023   27.7593 C   0  0  0  0  0  0  0  0  0  0  0  0
  -27.8576    1.5309   27.2156 C   0  0  0  0  0  0  0  0  0  0  0  0
  -27.8433    2.7213   26.2861 C   0  0  0  0  0  0  0  0  0  0  0  0
  -26.8635    3.2096   26.1540 C   0  0  0  0  0  0  0  0  0  0  0  0
  -25.5914    2.8589   26.7139 C   0  0  0  0  0  0  0  0  0  0  0  0
  -25.6690    1.7882   27.5551 C   0  0  0  0  0  0  0  0  0  0  0  0
  -29.2643   -2.8777   30.2578 Cl  0  0  0  0  0  0  0  0  0  0  0  0
  -24.1379    3.7081   26.4986 Cl  0  0  0  0  0  0  0  0  0  0  0  0
  -29.1441    3.1279   25.6185 C   0  0  0  0  0  0  0  0  0  0  0  0
  -29.5197    2.3543   24.3307 Cl  0  0  0  0  0  0  0  0  0  0  0  0
  -29.8975    4.1744   26.1863 C   0  0  0  0  0  0  0  0  0  0  0  0
  -30.7911    3.8701   27.1510 C   0  0  0  0  0  0  0  0  0  0  0  0
  -31.4296    4.8842   27.6999 C   0  0  0  0  0  0  0  0  0  0  0  0
  -31.4057    6.2186   27.1741 C   0  0  0  0  0  0  0  0  0  0  0  0
  -30.4649    6.5084   26.2020 C   0  0  0  0  0  0  0  0  0  0  0  0
  -29.6584    5.4895   25.6549 C   0  0  0  0  0  0  0  0  0  0  0  0
  2  7  1  0
  6 13  1  0
 11 14  1  0
  9 15  1  0
 15 16  1  0
 15 17  1  0
 17 18  2  0
 18 19  1  0
 19 20  2  0
 20 21  1  0
 21 22  2  0
 22 17  1  0
  1  2  2  0
  2  3  1  0
  3  4  2  0
  4  5  1  0
  5  6  2  0
  6  1  1  0
  7  8  2  0
  8  9  1  0
  9 10  2  0
 10 11  1  0
 11 12  2  0
 12  7  1  0
M  END

$$$$
