No_4004-gen_results/8p0m/2024-11-27-11-27-31/
     RDKit          3D

 34 35  0  0  0  0  0  0  0  0999 V2000
  -28.0162   -0.8135   28.8779 C   0  0  0  0  0  0  0  0  0  0  0  0
  -28.4690   -0.7850   29.8287 C   0  0  0  0  0  0  0  0  0  0  0  0
  -26.5042   -0.7777   28.8766 C   0  0  0  0  0  0  0  0  0  0  0  0
  -25.8103   -0.8531   30.1028 C   0  0  0  0  0  0  0  0  0  0  0  0
  -27.9906   -0.8916   31.2257 C   0  0  0  0  0  0  0  0  0  0  0  0
  -26.6042   -0.8676   31.2652 C   0  0  0  0  0  0  0  0  0  0  0  0
  -24.3894   -0.8049   30.1638 C   0  0  0  0  0  0  0  0  0  0  0  0
  -23.7660   -0.9500   31.0679 C   0  0  0  0  0  0  0  0  0  0  0  0
  -24.4866   -1.0287   32.3849 C   0  0  0  0  0  0  0  0  0  0  0  0
  -25.8375   -0.9259   32.4678 C   0  0  0  0  0  0  0  0  0  0  0  0
  -25.5091   -0.6798   27.2684 Br  0  0  0  0  0  0  0  0  0  0  0  0
  -30.1023   -0.8556   29.8276 C   0  0  0  0  0  0  0  0  0  0  0  0
  -30.7328    0.0206   30.4799 O   0  0  0  0  0  0  0  0  0  0  0  0
  -30.6568   -1.6751   29.1159 O   0  0  0  0  0  0  0  0  0  0  0  0
  -26.4210   -0.9465   33.6497 O   0  0  0  0  0  0  0  0  0  0  0  0
  -27.5097   -0.2287   33.9639 C   0  0  0  0  0  0  0  0  0  0  0  0
  -27.2163    1.1146   34.3939 C   0  0  0  0  0  0  0  0  0  0  0  0
  -27.5491    1.9831   33.7245 O   0  0  0  0  0  0  0  0  0  0  0  0
  -26.7543    3.0027   33.3490 C   0  0  0  0  0  0  0  0  0  0  0  0
  -26.8044    3.4268   31.9905 C   0  0  0  0  0  0  0  0  0  0  0  0
  -27.6463    3.0239   31.4138 F   0  0  0  0  0  0  0  0  0  0  0  0
  -25.6012    3.3446   31.2312 F   0  0  0  0  0  0  0  0  0  0  0  0
  -26.9555    4.7976   31.8477 F   0  0  0  0  0  0  0  0  0  0  0  0
  -26.9231    4.1635   34.2378 O   0  0  0  0  0  0  0  0  0  0  0  0
  -28.3336   -0.8836   35.0678 C   0  0  0  0  0  0  0  0  0  0  0  0
  -29.3588   -1.5021   34.6721 O   0  0  0  0  0  0  0  0  0  0  0  0
  -30.3655   -1.8728   35.4253 C   0  0  0  0  0  0  0  0  0  0  0  0
  -31.5993   -1.8054   34.8805 C   0  0  0  0  0  0  0  0  0  0  0  0
  -31.8081   -0.9473   34.0268 O   0  0  0  0  0  0  0  0  0  0  0  0
  -32.1354   -3.1672   34.2046 C   0  0  0  0  0  0  0  0  0  0  0  0
  -31.9998   -4.4999   35.0141 Cl  0  0  0  0  0  0  0  0  0  0  0  0
  -33.4343   -2.8794   33.7339 N   0  0  0  0  0  0  0  0  0  0  0  0
  -33.8065   -3.0657   32.4867 C   0  0  0  0  0  0  0  0  0  0  0  0
  -35.1184   -2.7459   32.0645 C   0  0  0  0  0  0  0  0  0  0  0  0
  3 11  1  0
  2 12  1  0
 12 13  2  0
 12 14  1  0
 10 15  1  0
 15 16  1  0
 16 17  1  0
 17 18  1  0
 18 19  1  0
 19 20  1  0
 20 21  1  0
 20 22  1  0
 20 23  1  0
 19 24  1  0
 16 25  1  0
 25 26  1  0
 26 27  1  0
 27 28  1  0
 28 29  1  0
 28 30  1  0
 30 31  1  0
 30 32  1  0
 32 33  1  0
 33 34  2  0
  6 10  1  0
 10  9  2  0
  9  8  1  0
  8  7  2  0
  7  4  1  0
  1  2  2  0
  2  5  1  0
  5  6  2  0
  6  4  1  0
  4  3  2  0
  3  1  1  0
M  END

$$$$
