No_4869-gen_results/8p0m/2024-11-27-11-27-31/
     RDKit          3D

 35 38  0  0  0  0  0  0  0  0999 V2000
  -28.0162   -0.8135   28.8779 C   0  0  0  0  0  0  0  0  0  0  0  0
  -27.0636   -0.1189   28.6079 C   0  0  0  0  0  0  0  0  0  0  0  0
  -26.9716    0.7139   27.5060 C   0  0  0  0  0  0  0  0  0  0  0  0
  -28.1053    0.7744   26.6421 C   0  0  0  0  0  0  0  0  0  0  0  0
  -29.2041    0.1179   27.0477 C   0  0  0  0  0  0  0  0  0  0  0  0
  -29.2127   -0.6088   28.1281 C   0  0  0  0  0  0  0  0  0  0  0  0
  -25.7106    1.4519   27.1380 C   0  0  0  0  0  0  0  0  0  0  0  0
  -25.3772    2.0455   26.1737 C   0  0  0  0  0  0  0  0  0  0  0  0
  -24.0563    2.6671   26.0691 C   0  0  0  0  0  0  0  0  0  0  0  0
  -23.0770    2.4486   27.0206 C   0  0  0  0  0  0  0  0  0  0  0  0
  -23.3967    1.5496   28.0562 C   0  0  0  0  0  0  0  0  0  0  0  0
  -24.6503    1.0545   28.1947 C   0  0  0  0  0  0  0  0  0  0  0  0
  -30.7242    0.3138   25.9629 Br  0  0  0  0  0  0  0  0  0  0  0  0
  -22.3037    1.2830   29.0103 C   0  0  0  0  0  0  0  0  0  0  0  0
  -22.6621    0.4650   29.9636 N   0  0  0  0  0  0  0  0  0  0  0  0
  -23.6000    0.7133   30.8975 C   0  0  0  0  0  0  0  0  0  0  0  0
  -23.8923   -0.4993   31.6976 C   0  0  0  0  0  0  0  0  0  0  0  0
  -28.1039   -1.8026   30.3179 Cl  0  0  0  0  0  0  0  0  0  0  0  0
  -22.0813   -0.8256   30.0011 C   0  0  0  0  0  0  0  0  0  0  0  0
  -24.1229    1.7920   31.1734 O   0  0  0  0  0  0  0  0  0  0  0  0
  -24.8800   -0.3611   32.6946 N   0  0  0  0  0  0  0  0  0  0  0  0
  -23.3775   -1.6978   31.4606 C   0  0  0  0  0  0  0  0  0  0  0  0
  -22.4394   -1.8162   30.6072 N   0  0  0  0  0  0  0  0  0  0  0  0
  -24.8418   -0.2332   33.9443 C   0  0  0  0  0  0  0  0  0  0  0  0
  -26.2823   -0.1609   32.1251 C   0  0  0  0  0  0  0  0  0  0  0  0
  -27.3438   -0.4427   33.0668 C   0  0  0  0  0  0  0  0  0  0  0  0
  -27.8523    0.7086   33.6806 C   0  0  0  0  0  0  0  0  0  0  0  0
  -28.1481    1.8393   32.9329 C   0  0  0  0  0  0  0  0  0  0  0  0
  -29.1455    1.8234   32.0990 C   0  0  0  0  0  0  0  0  0  0  0  0
  -29.7242    2.7013   31.8123 C   0  0  0  0  0  0  0  0  0  0  0  0
  -30.8805    2.7011   30.7928 C   0  0  0  0  0  0  0  0  0  0  0  0
  -31.1723    1.4330   30.3811 C   0  0  0  0  0  0  0  0  0  0  0  0
  -30.9204    0.5276   31.1209 C   0  0  0  0  0  0  0  0  0  0  0  0
  -29.7270    0.5525   31.9418 C   0  0  0  0  0  0  0  0  0  0  0  0
  -27.9865    3.1227   33.7140 C   0  0  0  0  0  0  0  0  0  0  0  0
  3  7  1  0
  5 13  1  0
 11 14  1  0
 14 15  1  0
 15 16  1  0
 16 17  1  0
  1 18  1  0
 15 19  1  0
 16 20  2  0
 17 21  1  0
 17 22  1  0
 19 23  1  0
 22 23  1  0
 21 24  1  0
 21 25  1  0
 25 26  2  3
 26 27  1  0
 27 28  1  0
 28 29  1  0
 28 35  1  0
 29 30  2  0
 30 31  1  0
 31 32  2  0
 32 33  1  0
 33 34  2  0
 34 29  1  0
  1  2  2  0
  2  3  1  0
  3  4  2  0
  4  5  1  0
  5  6  2  0
  6  1  1  0
  7  8  2  0
  8  9  1  0
  9 10  2  0
 10 11  1  0
 11 12  2  0
 12  7  1  0
M  END

$$$$
