No_4317-gen_results/8p0m/2024-11-27-11-27-31/
     RDKit          3D

 14 15  0  0  0  0  0  0  0  0999 V2000
  -28.0162   -0.8135   28.8779 C   0  0  0  0  0  0  0  0  0  0  0  0
  -27.0636   -0.1189   28.6079 C   0  0  0  0  0  0  0  0  0  0  0  0
  -25.7647   -0.3897   29.0360 C   0  0  0  0  0  0  0  0  0  0  0  0
  -24.5517    0.4058   28.7646 C   0  0  0  0  0  0  0  0  0  0  0  0
  -24.6957    1.4480   27.7988 C   0  0  0  0  0  0  0  0  0  0  0  0
  -25.9755    1.7250   27.3077 C   0  0  0  0  0  0  0  0  0  0  0  0
  -27.0718    1.0134   27.6535 C   0  0  0  0  0  0  0  0  0  0  0  0
  -27.9653   -1.6216   30.1356 C   0  0  0  0  0  0  0  0  0  0  0  0
  -26.7081   -2.0850   30.4899 N   0  0  0  0  0  0  0  0  0  0  0  0
  -25.5754   -1.3844   30.1194 C   0  0  0  0  0  0  0  0  0  0  0  0
  -23.4762    2.2190   27.4457 C   0  0  0  0  0  0  0  0  0  0  0  0
  -22.6655    2.4043   28.3578 F   0  0  0  0  0  0  0  0  0  0  0  0
  -23.8322    3.4087   27.0481 F   0  0  0  0  0  0  0  0  0  0  0  0
  -22.8555    1.6402   26.3837 F   0  0  0  0  0  0  0  0  0  0  0  0
  5 11  1  0
 11 12  1  0
 11 13  1  0
 11 14  1  0
  3  4  1  0
  4  5  2  0
  5  6  1  0
  6  7  2  0
  7  2  1  0
  1  2  2  0
  2  3  1  0
  3 10  2  0
 10  9  1  0
  9  8  2  0
  8  1  1  0
M  END

$$$$
