No_4368-gen_results/8p0m/2024-11-27-11-27-31/
     RDKit          3D

 14 15  0  0  0  0  0  0  0  0999 V2000
  -28.0162   -0.8135   28.8779 C   0  0  0  0  0  0  0  0  0  0  0  0
  -27.0636   -0.1189   28.6079 C   0  0  0  0  0  0  0  0  0  0  0  0
  -26.9716    0.7139   27.5060 C   0  0  0  0  0  0  0  0  0  0  0  0
  -28.1053    0.7744   26.6421 C   0  0  0  0  0  0  0  0  0  0  0  0
  -29.2008    0.1044   27.0527 C   0  0  0  0  0  0  0  0  0  0  0  0
  -29.2096   -0.6029   28.1853 C   0  0  0  0  0  0  0  0  0  0  0  0
  -30.3702    0.2264   26.1604 C   0  0  0  0  0  0  0  0  0  0  0  0
  -30.3387    0.2161   24.9661 O   0  0  0  0  0  0  0  0  0  0  0  0
  -31.6346    0.1197   26.7803 N   0  0  0  0  0  0  0  0  0  0  0  0
  -31.8525    0.1404   28.1725 C   0  0  0  0  0  0  0  0  0  0  0  0
  -32.8083    0.1921   25.8736 C   0  0  0  0  0  0  0  0  0  0  0  0
  -33.1370    0.5291   28.4341 C   0  0  0  0  0  0  0  0  0  0  0  0
  -33.8732    0.4017   27.2306 C   0  0  0  0  0  0  0  0  0  0  0  0
  -34.8692   -0.7312   27.1299 C   0  0  0  0  0  0  0  0  0  0  0  0
  5  7  1  0
  7  8  2  0
  7  9  1  0
  9 10  1  0
  9 11  1  0
 10 12  2  0
 11 13  1  0
 12 13  1  0
 13 14  1  0
  1  2  2  0
  2  3  1  0
  3  4  2  0
  4  5  1  0
  5  6  2  0
  6  1  1  0
M  END

$$$$
