No_4020-gen_results/8p0m/2024-11-27-11-27-31/
     RDKit          3D

 32 35  0  0  0  0  0  0  0  0999 V2000
  -28.0162   -0.8135   28.8779 C   0  0  0  0  0  0  0  0  0  0  0  0
  -27.0636   -0.1189   28.6079 C   0  0  0  0  0  0  0  0  0  0  0  0
  -26.9287    1.1713   29.0083 C   0  0  0  0  0  0  0  0  0  0  0  0
  -27.9560    1.7411   29.7840 C   0  0  0  0  0  0  0  0  0  0  0  0
  -28.7721   -0.4537   29.8696 C   0  0  0  0  0  0  0  0  0  0  0  0
  -28.8636    0.8725   30.2920 C   0  0  0  0  0  0  0  0  0  0  0  0
  -26.0837   -0.5214   27.7210 F   0  0  0  0  0  0  0  0  0  0  0  0
  -30.0325    1.3815   31.4300 Cl  0  0  0  0  0  0  0  0  0  0  0  0
  -25.8592    2.0806   28.4185 C   0  0  0  0  0  0  0  0  0  0  0  0
  -24.6588    2.0578   29.0947 C   0  0  0  0  0  0  0  0  0  0  0  0
  -23.4113    2.2026   28.2880 C   0  0  0  0  0  0  0  0  0  0  0  0
  -23.5186    2.5440   26.9368 C   0  0  0  0  0  0  0  0  0  0  0  0
  -24.8101    2.5880   26.3509 C   0  0  0  0  0  0  0  0  0  0  0  0
  -25.9397    2.3276   27.0279 C   0  0  0  0  0  0  0  0  0  0  0  0
  -24.4739    1.7791   30.5260 C   0  0  0  0  0  0  0  0  0  0  0  0
  -24.6699    2.5506   31.3898 O   0  0  0  0  0  0  0  0  0  0  0  0
  -24.0899    0.5083   30.7937 O   0  0  0  0  0  0  0  0  0  0  0  0
  -24.8080   -0.3862   31.2886 C   0  0  0  0  0  0  0  0  0  0  0  0
  -24.0767   -1.2048   32.2010 C   0  0  0  0  0  0  0  0  0  0  0  0
  -24.4106   -1.0905   33.3615 O   0  0  0  0  0  0  0  0  0  0  0  0
  -25.1641    0.0050   33.7625 C   0  0  0  0  0  0  0  0  0  0  0  0
  -26.2731    0.0112   32.8146 C   0  0  0  0  0  0  0  0  0  0  0  0
  -27.6467    0.8612   33.4598 Cl  0  0  0  0  0  0  0  0  0  0  0  0
  -26.2559   -0.3646   31.5804 O   0  0  0  0  0  0  0  0  0  0  0  0
  -27.0189   -0.9716   33.2333 O   0  0  0  0  0  0  0  0  0  0  0  0
  -28.1150   -1.5791   33.2563 C   0  0  0  0  0  0  0  0  0  0  0  0
  -28.5771   -2.3116   32.2056 C   0  0  0  0  0  0  0  0  0  0  0  0
  -29.3738   -3.3924   32.6851 C   0  0  0  0  0  0  0  0  0  0  0  0
  -29.7631   -4.3678   31.7130 C   0  0  0  0  0  0  0  0  0  0  0  0
  -29.3326   -4.1871   30.4042 C   0  0  0  0  0  0  0  0  0  0  0  0
  -28.1472   -3.5386   30.1763 C   0  0  0  0  0  0  0  0  0  0  0  0
  -27.8073   -2.5074   31.1229 C   0  0  0  0  0  0  0  0  0  0  0  0
  2  7  1  0
  6  8  1  0
  3  9  1  0
 10 15  1  0
 15 16  2  0
 15 17  1  0
 17 18  1  0
 18 19  1  0
 19 20  1  0
 20 21  1  0
 21 22  1  0
 22 23  1  0
 18 24  1  0
 22 24  1  0
 22 25  1  0
 25 26  1  0
 26 27  1  0
 27 28  2  0
 28 29  1  0
 29 30  2  0
 30 31  1  0
 31 32  2  0
 32 27  1  0
  1  2  2  0
  2  3  1  0
  3  4  2  0
  4  6  1  0
  6  5  2  0
  5  1  1  0
  9 10  1  0
 10 11  2  0
 11 12  1  0
 12 13  2  0
 13 14  1  0
 14  9  2  0
M  END

$$$$
