No_4750-gen_results/8p0m/2024-11-27-11-27-31/
     RDKit          3D

 23 25  0  0  0  0  0  0  0  0999 V2000
  -28.0162   -0.8135   28.8779 C   0  0  0  0  0  0  0  0  0  0  0  0
  -27.0636   -0.1189   28.6079 C   0  0  0  0  0  0  0  0  0  0  0  0
  -26.8756    1.1325   28.9134 C   0  0  0  0  0  0  0  0  0  0  0  0
  -27.9014    1.8066   29.6436 C   0  0  0  0  0  0  0  0  0  0  0  0
  -29.0458   -0.2316   29.7181 C   0  0  0  0  0  0  0  0  0  0  0  0
  -28.9402    1.0517   30.0597 C   0  0  0  0  0  0  0  0  0  0  0  0
  -30.0593   -1.0632   30.0946 O   0  0  0  0  0  0  0  0  0  0  0  0
  -25.6684    1.9363   28.4484 C   0  0  0  0  0  0  0  0  0  0  0  0
  -24.8947    2.4570   29.0063 C   0  0  0  0  0  0  0  0  0  0  0  0
  -25.5438    1.9966   26.9661 C   0  0  0  0  0  0  0  0  0  0  0  0
  -24.3981    2.6000   26.4303 C   0  0  0  0  0  0  0  0  0  0  0  0
  -23.6491    3.1273   28.6173 C   0  0  0  0  0  0  0  0  0  0  0  0
  -23.4194    3.1808   27.2440 C   0  0  0  0  0  0  0  0  0  0  0  0
  -24.9370    2.4823   30.4959 O   0  0  0  0  0  0  0  0  0  0  0  0
  -25.2770    3.5031   31.2092 C   0  0  0  0  0  0  0  0  0  0  0  0
  -25.8438    3.1220   32.4842 C   0  0  0  0  0  0  0  0  0  0  0  0
  -26.2840    1.8882   32.7649 C   0  0  0  0  0  0  0  0  0  0  0  0
  -27.4531    1.7552   33.2710 C   0  0  0  0  0  0  0  0  0  0  0  0
  -28.0165    2.7343   34.1345 C   0  0  0  0  0  0  0  0  0  0  0  0
  -27.4897    4.0599   34.0198 C   0  0  0  0  0  0  0  0  0  0  0  0
  -26.3591    4.3095   33.2655 C   0  0  0  0  0  0  0  0  0  0  0  0
  -25.1368    4.6657   30.8490 O   0  0  0  0  0  0  0  0  0  0  0  0
  -30.6705   -0.8563   31.2991 C   0  0  0  0  0  0  0  0  0  0  0  0
  5  7  1  0
  3  8  1  0
  9 14  1  0
 14 15  1  0
 15 16  1  0
 15 22  2  0
  7 23  1  0
  1  2  2  0
  2  3  1  0
  3  4  2  0
  4  6  1  0
  6  5  2  0
  5  1  1  0
  8  9  2  0
  9 12  1  0
 12 13  2  0
 13 11  1  0
 11 10  2  0
 10  8  1  0
 16 17  2  0
 17 18  1  0
 18 19  2  0
 19 20  1  0
 20 21  2  0
 21 16  1  0
M  END

$$$$
