No_4690-gen_results/8p0m/2024-11-27-11-27-31/
     RDKit          3D

 17 18  0  0  0  0  0  0  0  0999 V2000
  -28.0162   -0.8135   28.8779 C   0  0  0  0  0  0  0  0  0  0  0  0
  -28.4690   -0.7850   29.8287 C   0  0  0  0  0  0  0  0  0  0  0  0
  -26.5455   -0.8762   28.8500 C   0  0  0  0  0  0  0  0  0  0  0  0
  -25.8041   -1.0324   30.0571 C   0  0  0  0  0  0  0  0  0  0  0  0
  -27.9437   -0.9869   31.2075 C   0  0  0  0  0  0  0  0  0  0  0  0
  -26.5825   -1.0386   31.2231 C   0  0  0  0  0  0  0  0  0  0  0  0
  -30.0606   -0.7371   29.9024 C   0  0  0  0  0  0  0  0  0  0  0  0
  -30.7252   -1.5544   30.2697 O   0  0  0  0  0  0  0  0  0  0  0  0
  -30.5563    0.4242   29.3124 N   0  0  0  0  0  0  0  0  0  0  0  0
  -31.9645    0.5638   29.1626 C   0  0  0  0  0  0  0  0  0  0  0  0
  -32.3342    1.5588   28.7573 C   0  0  0  0  0  0  0  0  0  0  0  0
  -31.4375    2.6379   28.2682 C   0  0  0  0  0  0  0  0  0  0  0  0
  -30.0453    2.4232   28.3605 C   0  0  0  0  0  0  0  0  0  0  0  0
  -29.5988    1.3754   28.9155 C   0  0  0  0  0  0  0  0  0  0  0  0
  -24.1145   -1.2200   30.0714 S   0  0  0  0  0  0  0  0  0  0  0  0
  -23.7012   -1.4208   31.1444 O   0  0  0  0  0  0  0  0  0  0  0  0
  -23.6979    0.1663   29.6057 O   0  0  0  0  0  0  0  0  0  0  0  0
  2  7  1  0
  7  8  2  0
  7  9  1  0
  9 10  1  0
 11 12  1  0
  9 14  1  0
 13 14  1  0
  4 15  1  0
 15 16  2  0
 15 17  2  0
 10 11  1  0
 12 13  1  0
  1  2  2  0
  2  5  1  0
  5  6  2  0
  6  4  1  0
  4  3  2  0
  3  1  1  0
M  END

$$$$
