No_4342-gen_results/8p0m/2024-11-27-11-27-31/
     RDKit          3D

 32 35  0  0  0  0  0  0  0  0999 V2000
  -28.0162   -0.8135   28.8779 C   0  0  0  0  0  0  0  0  0  0  0  0
  -27.0636   -0.1189   28.6079 C   0  0  0  0  0  0  0  0  0  0  0  0
  -25.7923   -0.4302   29.0761 C   0  0  0  0  0  0  0  0  0  0  0  0
  -25.2700   -0.0487   30.0123 C   0  0  0  0  0  0  0  0  0  0  0  0
  -29.2965   -0.1838   28.9398 C   0  0  0  0  0  0  0  0  0  0  0  0
  -29.5648    0.8003   28.0352 C   0  0  0  0  0  0  0  0  0  0  0  0
  -28.4695    1.4413   27.4238 C   0  0  0  0  0  0  0  0  0  0  0  0
  -27.1368    1.0792   27.7975 C   0  0  0  0  0  0  0  0  0  0  0  0
  -23.8998   -0.3449   30.5249 C   0  0  0  0  0  0  0  0  0  0  0  0
  -23.1002   -1.1823   29.7463 C   0  0  0  0  0  0  0  0  0  0  0  0
  -24.9960   -1.5073   28.3348 C   0  0  0  0  0  0  0  0  0  0  0  0
  -23.6704   -1.7830   28.6776 C   0  0  0  0  0  0  0  0  0  0  0  0
  -25.9729    1.7201   27.2103 C   0  0  0  0  0  0  0  0  0  0  0  0
  -25.3721    1.3432   26.0882 C   0  0  0  0  0  0  0  0  0  0  0  0
  -25.5026    2.9134   27.9528 C   0  0  0  0  0  0  0  0  0  0  0  0
  -24.3368    3.5294   27.4891 C   0  0  0  0  0  0  0  0  0  0  0  0
  -24.1415    2.0024   25.6671 C   0  0  0  0  0  0  0  0  0  0  0  0
  -23.7041    3.1161   26.3271 C   0  0  0  0  0  0  0  0  0  0  0  0
  -28.6507    2.6620   26.5895 C   0  0  0  0  0  0  0  0  0  0  0  0
  -30.4511   -1.0018   29.4657 C   0  0  0  0  0  0  0  0  0  0  0  0
  -30.2802   -1.7066   30.3480 O   0  0  0  0  0  0  0  0  0  0  0  0
  -31.5584   -0.7958   29.0122 O   0  0  0  0  0  0  0  0  0  0  0  0
  -28.7091    3.8530   27.1254 N   0  0  0  0  0  0  0  0  0  0  0  0
  -29.5971    4.5711   27.3037 C   0  0  0  0  0  0  0  0  0  0  0  0
  -30.8867    4.1805   27.1556 C   0  0  0  0  0  0  0  0  0  0  0  0
  -32.0255    5.0188   27.3736 C   0  0  0  0  0  0  0  0  0  0  0  0
  -28.7592    2.4551   25.3878 O   0  0  0  0  0  0  0  0  0  0  0  0
  -33.3220    4.5705   27.1996 C   0  0  0  0  0  0  0  0  0  0  0  0
  -34.4151    5.4102   27.2871 C   0  0  0  0  0  0  0  0  0  0  0  0
  -34.1658    6.7908   27.5206 C   0  0  0  0  0  0  0  0  0  0  0  0
  -32.9300    7.2963   27.6220 C   0  0  0  0  0  0  0  0  0  0  0  0
  -31.8290    6.4291   27.5018 C   0  0  0  0  0  0  0  0  0  0  0  0
  2  3  1  0
  8 13  1  0
  7 19  1  0
  5 20  1  0
 20 21  1  0
 20 22  2  0
 19 23  1  0
 23 24  1  0
 24 25  2  3
 25 26  1  0
 19 27  2  0
 26 28  2  0
 28 29  1  0
 29 30  2  0
 30 31  1  0
 31 32  2  0
 32 26  1  0
  1  2  2  0
  2  8  1  0
  8  7  2  0
  7  6  1  0
  6  5  2  0
  5  1  1  0
  3  4  2  0
  4  9  1  0
  9 10  2  0
 10 12  1  0
 12 11  2  0
 11  3  1  0
 13 14  2  0
 14 17  1  0
 17 18  2  0
 18 16  1  0
 16 15  2  0
 15 13  1  0
M  END

$$$$
