No_48-gen_results/8p0m/2024-11-27-11-27-31/
     RDKit          3D

 15 16  0  0  0  0  0  0  0  0999 V2000
  -28.0162   -0.8135   28.8779 C   0  0  0  0  0  0  0  0  0  0  0  0
  -28.4690   -0.7850   29.8287 C   0  0  0  0  0  0  0  0  0  0  0  0
  -27.0871    0.2903   28.6377 C   0  0  0  0  0  0  0  0  0  0  0  0
  -26.8317    1.2487   29.5869 C   0  0  0  0  0  0  0  0  0  0  0  0
  -28.3914    0.0801   31.0065 C   0  0  0  0  0  0  0  0  0  0  0  0
  -27.4940    1.1521   30.7841 C   0  0  0  0  0  0  0  0  0  0  0  0
  -26.2596    0.6039   27.4149 C   0  0  0  0  0  0  0  0  0  0  0  0
  -25.1967    1.0461   27.3445 C   0  0  0  0  0  0  0  0  0  0  0  0
  -24.8438    2.0437   28.4640 C   0  0  0  0  0  0  0  0  0  0  0  0
  -25.5969    2.0134   29.6123 C   0  0  0  0  0  0  0  0  0  0  0  0
  -23.7254    2.7990   28.2392 O   0  0  0  0  0  0  0  0  0  0  0  0
  -29.4954   -1.8189   30.0978 F   0  0  0  0  0  0  0  0  0  0  0  0
  -25.1884    2.9250   30.7083 C   0  0  0  0  0  0  0  0  0  0  0  0
  -24.4610    2.4974   31.7183 N   0  0  0  0  0  0  0  0  0  0  0  0
  -25.9385    4.0107   30.8792 O   0  0  0  0  0  0  0  0  0  0  0  0
  9 11  1  0
  2 12  1  0
 10 13  1  0
 13 14  1  0
 13 15  2  0
  4 10  2  0
 10  9  1  0
  9  8  2  0
  8  7  1  0
  7  3  2  0
  1  2  2  0
  2  5  1  0
  5  6  2  0
  6  4  1  0
  4  3  1  0
  3  1  1  0
M  END

$$$$
