No_4476-gen_results/8p0m/2024-11-27-11-27-31/
     RDKit          3D

 21 21  0  0  0  0  0  0  0  0999 V2000
  -28.0162   -0.8135   28.8779 C   0  0  0  0  0  0  0  0  0  0  0  0
  -27.0636   -0.1190   28.6079 C   0  0  0  0  0  0  0  0  0  0  0  0
  -25.7647   -0.3897   29.0360 C   0  0  0  0  0  0  0  0  0  0  0  0
  -24.5516    0.4058   28.7646 C   0  0  0  0  0  0  0  0  0  0  0  0
  -24.6957    1.4480   27.7988 C   0  0  0  0  0  0  0  0  0  0  0  0
  -25.9755    1.7250   27.3077 C   0  0  0  0  0  0  0  0  0  0  0  0
  -27.0718    1.0134   27.6535 C   0  0  0  0  0  0  0  0  0  0  0  0
  -29.2099   -0.0501   29.3493 C   0  0  0  0  0  0  0  0  0  0  0  0
  -29.5399    1.3686   29.0128 Br  0  0  0  0  0  0  0  0  0  0  0  0
  -30.1517   -0.8841   30.0053 O   0  0  0  0  0  0  0  0  0  0  0  0
  -23.4832    2.2247   27.4896 C   0  0  0  0  0  0  0  0  0  0  0  0
  -22.3296    1.5827   27.3531 C   0  0  0  0  0  0  0  0  0  0  0  0
  -23.7088    3.5277   26.9925 C   0  0  0  0  0  0  0  0  0  0  0  0
  -21.4721    1.3357   28.5049 C   0  0  0  0  0  0  0  0  0  0  0  0
  -21.7306    1.6159   29.5428 O   0  0  0  0  0  0  0  0  0  0  0  0
  -20.3914    0.5976   28.2268 O   0  0  0  0  0  0  0  0  0  0  0  0
  -25.4974   -1.4988   30.0085 C   0  0  0  0  0  0  0  0  0  0  0  0
  -25.0165   -2.5605   29.6993 C   0  0  0  0  0  0  0  0  0  0  0  0
  -23.6371   -2.6269   29.3552 C   0  0  0  0  0  0  0  0  0  0  0  0
  -25.7147   -3.8133   29.3824 C   0  0  0  0  0  0  0  0  0  0  0  0
  -26.9245   -3.8641   29.8650 O   0  0  0  0  0  0  0  0  0  0  0  0
  1  2  2  3
  2  3  1  0
  3  4  1  0
  4  5  1  0
  5  6  1  0
  2  7  1  0
  6  7  1  0
  1  8  1  0
  8  9  1  0
  8 10  1  0
  5 11  1  0
 11 12  2  3
 11 13  1  0
 12 14  1  0
 14 15  2  0
 14 16  1  0
  3 17  1  0
 17 18  1  0
 18 19  1  0
 18 20  1  0
 20 21  2  0
M  END

$$$$
