No_4838-gen_results/8p0m/2024-11-27-11-27-31/
     RDKit          3D

 22 24  0  0  0  0  0  0  0  0999 V2000
  -28.0162   -0.8135   28.8779 C   0  0  0  0  0  0  0  0  0  0  0  0
  -28.4690   -0.7850   29.8287 C   0  0  0  0  0  0  0  0  0  0  0  0
  -26.5455   -0.8762   28.8500 C   0  0  0  0  0  0  0  0  0  0  0  0
  -25.8041   -1.0324   30.0571 C   0  0  0  0  0  0  0  0  0  0  0  0
  -26.5373   -1.0386   31.2171 C   0  0  0  0  0  0  0  0  0  0  0  0
  -27.8843   -0.9532   31.1862 C   0  0  0  0  0  0  0  0  0  0  0  0
  -24.3655   -1.1134   30.0483 C   0  0  0  0  0  0  0  0  0  0  0  0
  -23.6925    0.1188   29.9185 C   0  0  0  0  0  0  0  0  0  0  0  0
  -22.3936    0.1820   29.3480 C   0  0  0  0  0  0  0  0  0  0  0  0
  -21.7683    1.3866   29.0594 C   0  0  0  0  0  0  0  0  0  0  0  0
  -24.2178    1.3685   30.4361 C   0  0  0  0  0  0  0  0  0  0  0  0
  -23.6611    2.6029   30.0611 C   0  0  0  0  0  0  0  0  0  0  0  0
  -22.4070    2.5999   29.4056 C   0  0  0  0  0  0  0  0  0  0  0  0
  -25.8068   -0.8245   27.7153 O   0  0  0  0  0  0  0  0  0  0  0  0
  -25.6943    0.4101   27.0038 C   0  0  0  0  0  0  0  0  0  0  0  0
  -26.2799    1.3712   27.1844 C   0  0  0  0  0  0  0  0  0  0  0  0
  -26.0730    2.6028   26.4906 C   0  0  0  0  0  0  0  0  0  0  0  0
  -24.9885    2.6121   25.6494 C   0  0  0  0  0  0  0  0  0  0  0  0
  -24.1807    1.5333   25.4722 C   0  0  0  0  0  0  0  0  0  0  0  0
  -24.5109    0.3693   26.1584 C   0  0  0  0  0  0  0  0  0  0  0  0
  -23.8790   -1.8195   31.3200 C   0  0  0  0  0  0  0  0  0  0  0  0
  -23.9327   -2.1340   28.9246 C   0  0  0  0  0  0  0  0  0  0  0  0
  4  7  1  0
  7  8  1  0
  3 14  1  0
 14 15  1  0
  7 21  1  0
  7 22  1  0
 15 16  2  0
 16 17  1  0
 17 18  2  0
 18 19  1  0
 19 20  2  0
 20 15  1  0
  1  2  2  0
  2  6  1  0
  6  5  2  0
  5  4  1  0
  4  3  2  0
  3  1  1  0
  8  9  2  0
  9 10  1  0
 10 13  2  0
 13 12  1  0
 12 11  2  0
 11  8  1  0
M  END

$$$$
