No_4930-gen_results/8p0m/2024-11-27-11-27-31/
     RDKit          3D

 25 25  0  0  0  0  0  0  0  0999 V2000
  -28.0162   -0.8135   28.8779 C   0  0  0  0  0  0  0  0  0  0  0  0
  -27.0636   -0.1190   28.6079 C   0  0  0  0  0  0  0  0  0  0  0  0
  -26.9716    0.7139   27.5060 C   0  0  0  0  0  0  0  0  0  0  0  0
  -25.8205    1.4909   27.1160 C   0  0  0  0  0  0  0  0  0  0  0  0
  -24.6562    1.4242   27.9180 C   0  0  0  0  0  0  0  0  0  0  0  0
  -24.6847    0.5901   29.0659 C   0  0  0  0  0  0  0  0  0  0  0  0
  -25.8099   -0.1266   29.3338 C   0  0  0  0  0  0  0  0  0  0  0  0
  -28.6943   -0.4734   30.1587 C   0  0  0  0  0  0  0  0  0  0  0  0
  -29.7865   -1.3251   30.6371 C   0  0  0  0  0  0  0  0  0  0  0  0
  -23.2650    2.3222   27.5608 Cl  0  0  0  0  0  0  0  0  0  0  0  0
  -28.3425    0.5009   30.9028 O   0  0  0  0  0  0  0  0  0  0  0  0
  -29.6943   -2.2453   31.2436 O   0  0  0  0  0  0  0  0  0  0  0  0
  -30.9770   -0.8818   30.2769 O   0  0  0  0  0  0  0  0  0  0  0  0
  -28.1020    0.8361   26.5865 C   0  0  0  0  0  0  0  0  0  0  0  0
  -28.0833    0.5881   25.0176 P   0  0  0  0  0  0  0  0  0  0  0  0
  -29.0913   -0.2823   24.5936 O   0  0  0  0  0  0  0  0  0  0  0  0
  -26.6941    0.3504   24.5506 O   0  0  0  0  0  0  0  0  0  0  0  0
  -28.3932    2.0694   24.4579 O   0  0  0  0  0  0  0  0  0  0  0  0
  -30.3325   -0.3977   25.0331 C   0  0  0  0  0  0  0  0  0  0  0  0
  -31.0810   -1.5127   24.4361 C   0  0  0  0  0  0  0  0  0  0  0  0
  -31.8758   -2.2911   25.3337 C   0  0  0  0  0  0  0  0  0  0  0  0
  -31.8487   -3.5368   25.4562 C   0  0  0  0  0  0  0  0  0  0  0  0
  -32.6497   -4.3221   26.3721 C   0  0  0  0  0  0  0  0  0  0  0  0
  -33.1933   -3.6026   27.4198 C   0  0  0  0  0  0  0  0  0  0  0  0
  -33.9154   -4.3260   28.4419 C   0  0  0  0  0  0  0  0  0  0  0  0
  1  8  1  0
  8  9  1  0
  5 10  1  0
  8 11  2  0
  9 12  2  0
  9 13  1  0
  3 14  1  0
 14 15  1  0
 15 16  1  0
 15 17  2  0
 15 18  1  0
 16 19  1  0
 19 20  2  3
 20 21  1  0
 21 22  1  0
 22 23  2  3
 23 24  1  0
 24 25  1  0
  1  2  1  0
  2  3  2  0
  3  4  1  0
  4  5  2  0
  5  6  1  0
  6  7  2  0
  7  2  1  0
M  END

$$$$
