No_4391-gen_results/8p0m/2024-11-27-11-27-31/
     RDKit          3D

 13 13  0  0  0  0  0  0  0  0999 V2000
  -28.0162   -0.8135   28.8779 C   0  0  0  0  0  0  0  0  0  0  0  0
  -28.4690   -0.7850   29.8287 C   0  0  0  0  0  0  0  0  0  0  0  0
  -27.0871    0.2903   28.6377 C   0  0  0  0  0  0  0  0  0  0  0  0
  -26.8317    1.2487   29.5869 C   0  0  0  0  0  0  0  0  0  0  0  0
  -29.4442   -1.9481   30.1840 C   0  0  0  0  0  0  0  0  0  0  0  0
  -27.4956    1.1303   30.8222 C   0  0  0  0  0  0  0  0  0  0  0  0
  -28.3376    0.0364   31.0331 C   0  0  0  0  0  0  0  0  0  0  0  0
  -29.9130   -1.9264   31.4068 O   0  0  0  0  0  0  0  0  0  0  0  0
  -26.3107    0.4349   27.3365 C   0  0  0  0  0  0  0  0  0  0  0  0
  -26.5770   -0.1589   26.4574 F   0  0  0  0  0  0  0  0  0  0  0  0
  -24.9701    0.4452   27.5157 F   0  0  0  0  0  0  0  0  0  0  0  0
  -26.5013    1.7984   26.8611 F   0  0  0  0  0  0  0  0  0  0  0  0
  -29.4249   -3.0227   29.6555 O   0  0  0  0  0  0  0  0  0  0  0  0
  2  5  1  0
  5  8  1  0
  3  9  1  0
  9 10  1  0
  9 11  1  0
  9 12  1  0
  5 13  2  0
  1  2  2  0
  2  7  1  0
  7  6  2  0
  6  4  1  0
  4  3  2  0
  3  1  1  0
M  END

$$$$
