No_4433-gen_results/8p0m/2024-11-27-11-27-31/
     RDKit          3D

 22 23  0  0  0  0  0  0  0  0999 V2000
  -28.0162   -0.8135   28.8779 C   0  0  0  0  0  0  0  0  0  0  0  0
  -27.0636   -0.1189   28.6079 C   0  0  0  0  0  0  0  0  0  0  0  0
  -27.0010    0.6913   27.4910 C   0  0  0  0  0  0  0  0  0  0  0  0
  -28.1373    0.7363   26.6350 C   0  0  0  0  0  0  0  0  0  0  0  0
  -29.2360    0.0765   27.0690 C   0  0  0  0  0  0  0  0  0  0  0  0
  -29.2177   -0.6429   28.1747 C   0  0  0  0  0  0  0  0  0  0  0  0
  -30.5230    0.0808   26.3695 C   0  0  0  0  0  0  0  0  0  0  0  0
  -30.6024   -0.1441   25.1466 N   0  0  0  0  0  0  0  0  0  0  0  0
  -31.6053    0.2760   26.9842 O   0  0  0  0  0  0  0  0  0  0  0  0
  -25.5958   -0.1060   29.2194 C   0  0  0  0  0  0  0  0  0  0  0  0
  -25.2574   -0.9916   29.8990 O   0  0  0  0  0  0  0  0  0  0  0  0
  -24.8308    0.9299   29.0537 O   0  0  0  0  0  0  0  0  0  0  0  0
  -29.4290   -0.4776   24.2826 C   0  0  0  0  0  0  0  0  0  0  0  0
  -31.8186   -0.2250   24.3333 C   0  0  0  0  0  0  0  0  0  0  0  0
  -24.5808    1.8375   29.5781 C   0  0  0  0  0  0  0  0  0  0  0  0
  -23.5679    1.6206   30.5374 C   0  0  0  0  0  0  0  0  0  0  0  0
  -25.2297    3.0897   29.5588 C   0  0  0  0  0  0  0  0  0  0  0  0
  -25.7155    3.7651   30.5645 N   0  0  0  0  0  0  0  0  0  0  0  0
  -25.8790    5.0582   30.6533 C   0  0  0  0  0  0  0  0  0  0  0  0
  -25.1794    3.8754   28.2737 C   0  0  0  0  0  0  0  0  0  0  0  0
  -25.5617    5.2439   28.2485 C   0  0  0  0  0  0  0  0  0  0  0  0
  -25.9409    5.8031   29.4682 C   0  0  0  0  0  0  0  0  0  0  0  0
  5  7  1  0
  7  8  1  0
  7  9  2  0
  2 10  1  0
 10 11  2  0
 10 12  1  0
  8 13  1  0
  8 14  1  0
 12 15  1  0
 15 16  2  0
 15 17  1  0
  1  2  2  0
  2  3  1  0
  3  4  2  0
  4  5  1  0
  5  6  2  0
  6  1  1  0
 17 18  2  0
 18 19  1  0
 19 22  2  0
 22 21  1  0
 21 20  2  0
 20 17  1  0
M  END

$$$$
