No_4497-gen_results/8p0m/2024-11-27-11-27-31/
     RDKit          3D

  8  7  0  0  0  0  0  0  0  0999 V2000
  -28.1146   -0.6256   29.0813 Br  0  0  0  0  0  0  0  0  0  0  0  0
  -26.9268    0.4545   28.6846 C   0  0  0  0  0  0  0  0  0  0  0  0
  -25.8457    0.7043   29.3312 C   0  0  0  0  0  0  0  0  0  0  0  0
  -25.5115   -0.1985   30.4878 C   0  0  0  0  0  0  0  0  0  0  0  0
  -24.3310    0.0607   31.2191 C   0  0  0  0  0  0  0  0  0  0  0  0
  -23.4517    1.0942   30.7890 C   0  0  0  0  0  0  0  0  0  0  0  0
  -23.7174    1.8848   29.6952 C   0  0  0  0  0  0  0  0  0  0  0  0
  -24.8871    1.6560   28.9886 C   0  0  0  0  0  0  0  0  0  0  0  0
  1  2  1  0
  2  3  2  3
  3  4  1  0
  4  5  1  0
  5  6  2  3
  6  7  1  0
  7  8  1  0
M  END

$$$$
