No_4715-gen_results/8p0m/2024-11-27-11-27-31/
     RDKit          3D

 35 38  0  0  0  0  0  0  0  0999 V2000
  -28.0162   -0.8135   28.8779 C   0  0  0  0  0  0  0  0  0  0  0  0
  -28.4690   -0.7850   29.8287 C   0  0  0  0  0  0  0  0  0  0  0  0
  -27.1356    0.2359   28.5352 C   0  0  0  0  0  0  0  0  0  0  0  0
  -26.8745    1.2825   29.3982 C   0  0  0  0  0  0  0  0  0  0  0  0
  -28.3613    0.1987   30.9244 C   0  0  0  0  0  0  0  0  0  0  0  0
  -27.5277    1.2234   30.6356 C   0  0  0  0  0  0  0  0  0  0  0  0
  -26.3987    0.2949   27.2279 C   0  0  0  0  0  0  0  0  0  0  0  0
  -26.9022    0.7280   26.2134 C   0  0  0  0  0  0  0  0  0  0  0  0
  -28.2290    1.2592   26.1972 C   0  0  0  0  0  0  0  0  0  0  0  0
  -28.7982    1.5774   24.8830 C   0  0  0  0  0  0  0  0  0  0  0  0
  -30.0676    2.1462   24.8273 C   0  0  0  0  0  0  0  0  0  0  0  0
  -30.7301    2.5250   26.0010 C   0  0  0  0  0  0  0  0  0  0  0  0
  -30.1271    2.2728   27.2252 C   0  0  0  0  0  0  0  0  0  0  0  0
  -28.9224    1.7239   27.3252 C   0  0  0  0  0  0  0  0  0  0  0  0
  -25.0882   -0.3254   27.3700 C   0  0  0  0  0  0  0  0  0  0  0  0
  -23.9750    0.6536   27.5271 C   0  0  0  0  0  0  0  0  0  0  0  0
  -22.9633    0.4100   28.5175 C   0  0  0  0  0  0  0  0  0  0  0  0
  -22.9692   -0.7241   29.3172 C   0  0  0  0  0  0  0  0  0  0  0  0
  -24.0114   -1.6452   29.0462 C   0  0  0  0  0  0  0  0  0  0  0  0
  -25.0169   -1.3977   28.2697 C   0  0  0  0  0  0  0  0  0  0  0  0
  -26.1418    1.0237   25.0393 C   0  0  0  0  0  0  0  0  0  0  0  0
  -29.7092   -2.2276   30.4313 Br  0  0  0  0  0  0  0  0  0  0  0  0
  -30.9414    2.6665   28.4572 C   0  0  0  0  0  0  0  0  0  0  0  0
  -31.8066    1.8120   28.9702 C   0  0  0  0  0  0  0  0  0  0  0  0
  -32.4031    2.0449   30.2154 C   0  0  0  0  0  0  0  0  0  0  0  0
  -30.6290    3.9243   29.0729 C   0  0  0  0  0  0  0  0  0  0  0  0
  -31.2883    4.2249   30.3036 C   0  0  0  0  0  0  0  0  0  0  0  0
  -32.1817    3.3088   30.8600 C   0  0  0  0  0  0  0  0  0  0  0  0
  -32.9796    3.6471   32.3478 Cl  0  0  0  0  0  0  0  0  0  0  0  0
  -29.7171    4.9175   28.5466 C   0  0  0  0  0  0  0  0  0  0  0  0
  -28.6451    5.0628   28.9956 N   0  0  0  0  0  0  0  0  0  0  0  0
  -27.8463    5.9839   28.9720 C   0  0  0  0  0  0  0  0  0  0  0  0
  -30.0604    5.5145   27.4922 O   0  0  0  0  0  0  0  0  0  0  0  0
  -26.4951    5.8162   29.4104 C   0  0  0  0  0  0  0  0  0  0  0  0
  -25.3843    6.0640   28.7258 C   0  0  0  0  0  0  0  0  0  0  0  0
  3  7  1  0
  7  8  2  3
  8  9  1  0
  7 15  1  0
  8 21  1  0
  2 22  1  0
 13 23  1  0
 28 29  1  0
 26 30  1  0
 30 31  1  0
 31 32  1  0
 30 33  2  0
 32 34  2  3
 34 35  1  0
  9 10  2  0
 10 11  1  0
 11 12  2  0
 12 13  1  0
 13 14  2  0
 14  9  1  0
 23 24  2  0
 24 25  1  0
 25 28  2  0
 28 27  1  0
 27 26  2  0
 26 23  1  0
 15 16  2  0
 16 17  1  0
 17 18  2  0
 18 19  1  0
 19 20  2  0
 20 15  1  0
  1  2  2  0
  2  5  1  0
  5  6  2  0
  6  4  1  0
  4  3  2  0
  3  1  1  0
M  END

$$$$
