No_4222-gen_results/8p0m/2024-11-27-11-27-31/
     RDKit          3D

 16 18  0  0  0  0  0  0  0  0999 V2000
  -28.0162   -0.8135   28.8779 C   0  0  0  0  0  0  0  0  0  0  0  0
  -27.0636   -0.1189   28.6079 C   0  0  0  0  0  0  0  0  0  0  0  0
  -26.9716    0.7139   27.5060 C   0  0  0  0  0  0  0  0  0  0  0  0
  -28.1053    0.7744   26.6421 C   0  0  0  0  0  0  0  0  0  0  0  0
  -29.2008    0.1044   27.0527 C   0  0  0  0  0  0  0  0  0  0  0  0
  -29.2096   -0.6029   28.1853 C   0  0  0  0  0  0  0  0  0  0  0  0
  -30.3044    0.2267   26.2604 O   0  0  0  0  0  0  0  0  0  0  0  0
  -25.8801   -0.2861   29.5801 C   0  0  0  0  0  0  0  0  0  0  0  0
  -24.9531    0.2024   29.6885 C   0  0  0  0  0  0  0  0  0  0  0  0
  -23.7843   -0.0974   30.5744 C   0  0  0  0  0  0  0  0  0  0  0  0
  -24.0196   -1.0836   31.5058 C   0  0  0  0  0  0  0  0  0  0  0  0
  -26.0709   -1.4542   30.5416 C   0  0  0  0  0  0  0  0  0  0  0  0
  -27.2479   -2.1617   30.5102 C   0  0  0  0  0  0  0  0  0  0  0  0
  -25.0892   -1.7077   31.4662 C   0  0  0  0  0  0  0  0  0  0  0  0
  -28.1798   -1.8366   29.8754 C   0  0  0  0  0  0  0  0  0  0  0  0
  -31.0598   -0.8164   26.0056 C   0  0  0  0  0  0  0  0  0  0  0  0
  5  7  1  0
  7 16  1  0
  2  3  2  0
  3  4  1  0
  4  5  2  0
  5  6  1  0
  6  1  2  0
  1  2  1  0
  2  8  1  0
 12 13  1  0
 13 15  2  0
 15  1  1  0
  8  9  2  0
  9 10  1  0
 10 11  2  0
 11 14  1  0
 14 12  2  0
 12  8  1  0
M  END

$$$$
