No_4848-gen_results/8p0m/2024-11-27-11-27-31/
     RDKit          3D

 15 16  0  0  0  0  0  0  0  0999 V2000
  -28.1229   -1.3353   28.4874 O   0  0  0  0  0  0  0  0  0  0  0  0
  -27.4806   -0.4044   28.7094 C   0  0  0  0  0  0  0  0  0  0  0  0
  -27.1904    0.2460   29.5268 C   0  0  0  0  0  0  0  0  0  0  0  0
  -26.6872   -0.0001   27.4423 N   0  0  0  0  0  0  0  0  0  0  0  0
  -27.6511    0.1259   30.8799 C   0  0  0  0  0  0  0  0  0  0  0  0
  -25.7508    1.0047   27.4342 C   0  0  0  0  0  0  0  0  0  0  0  0
  -25.5610    1.6907   28.6120 C   0  0  0  0  0  0  0  0  0  0  0  0
  -26.1559    1.3682   29.6808 C   0  0  0  0  0  0  0  0  0  0  0  0
  -28.1981   -0.9393   31.0413 F   0  0  0  0  0  0  0  0  0  0  0  0
  -26.8598    0.2975   31.8973 F   0  0  0  0  0  0  0  0  0  0  0  0
  -28.6444    1.1265   31.0775 F   0  0  0  0  0  0  0  0  0  0  0  0
  -25.1225    1.2931   26.2797 N   0  0  0  0  0  0  0  0  0  0  0  0
  -24.0807    2.2333   26.2720 C   0  0  0  0  0  0  0  0  0  0  0  0
  -23.8487    2.9645   27.4372 C   0  0  0  0  0  0  0  0  0  0  0  0
  -24.5078    2.7062   28.5308 C   0  0  0  0  0  0  0  0  0  0  0  0
  1  2  2  0
  2  3  1  0
  2  4  1  0
  3  5  1  0
  3  8  1  0
  5  9  1  0
  5 10  1  0
  5 11  1  0
  8  7  1  0
  6  4  1  0
  6  7  2  0
  7 15  1  0
 15 14  2  0
 14 13  1  0
 13 12  2  0
 12  6  1  0
M  END

$$$$
