No_4224-gen_results/8p0m/2024-11-27-11-27-31/
     RDKit          3D

 35 37  0  0  0  0  0  0  0  0999 V2000
  -28.0162   -0.8135   28.8779 C   0  0  0  0  0  0  0  0  0  0  0  0
  -28.4690   -0.7850   29.8287 C   0  0  0  0  0  0  0  0  0  0  0  0
  -27.0871    0.2903   28.6377 C   0  0  0  0  0  0  0  0  0  0  0  0
  -26.8317    1.2487   29.5869 C   0  0  0  0  0  0  0  0  0  0  0  0
  -28.3914    0.0801   31.0065 C   0  0  0  0  0  0  0  0  0  0  0  0
  -27.4940    1.1521   30.7841 C   0  0  0  0  0  0  0  0  0  0  0  0
  -26.3172    0.3994   27.3653 C   0  0  0  0  0  0  0  0  0  0  0  0
  -26.9484    0.3460   26.3604 F   0  0  0  0  0  0  0  0  0  0  0  0
  -25.6329    1.6514   27.3249 F   0  0  0  0  0  0  0  0  0  0  0  0
  -25.1830   -0.3587   27.3844 F   0  0  0  0  0  0  0  0  0  0  0  0
  -29.4555   -2.0177   30.2379 C   0  0  0  0  0  0  0  0  0  0  0  0
  -29.0439   -3.1795   30.3757 O   0  0  0  0  0  0  0  0  0  0  0  0
  -30.5381   -1.7720   30.8620 O   0  0  0  0  0  0  0  0  0  0  0  0
  -27.2891    2.1824   31.8442 C   0  0  0  0  0  0  0  0  0  0  0  0
  -27.0522    2.0471   32.9083 N   0  0  0  0  0  0  0  0  0  0  0  0
  -27.2628    3.3797   31.2952 F   0  0  0  0  0  0  0  0  0  0  0  0
  -26.7848    2.9375   33.9456 C   0  0  0  0  0  0  0  0  0  0  0  0
  -27.7076    3.8386   34.3419 C   0  0  0  0  0  0  0  0  0  0  0  0
  -28.7884    3.4634   34.7889 C   0  0  0  0  0  0  0  0  0  0  0  0
  -29.8839    4.3355   35.0387 C   0  0  0  0  0  0  0  0  0  0  0  0
  -29.5822    5.7416   34.9265 C   0  0  0  0  0  0  0  0  0  0  0  0
  -28.3830    6.1874   34.4937 C   0  0  0  0  0  0  0  0  0  0  0  0
  -27.3563    5.2785   34.1681 C   0  0  0  0  0  0  0  0  0  0  0  0
  -26.0653    5.7477   33.7550 C   0  0  0  0  0  0  0  0  0  0  0  0
  -25.1227    5.9479   34.5958 C   0  0  0  0  0  0  0  0  0  0  0  0
  -23.8175    6.4518   34.1957 C   0  0  0  0  0  0  0  0  0  0  0  0
  -23.4340    6.3560   32.8059 C   0  0  0  0  0  0  0  0  0  0  0  0
  -24.5087    6.2242   32.0328 C   0  0  0  0  0  0  0  0  0  0  0  0
  -25.8040    5.7997   32.3918 C   0  0  0  0  0  0  0  0  0  0  0  0
  -25.2744    5.9622   35.9559 O   0  0  0  0  0  0  0  0  0  0  0  0
  -24.7231    6.8387   36.8217 C   0  0  0  0  0  0  0  0  0  0  0  0
  -24.2850    6.2185   37.9573 C   0  0  0  0  0  0  0  0  0  0  0  0
  -23.2397    6.8197   38.6047 C   0  0  0  0  0  0  0  0  0  0  0  0
  -22.5478    6.1549   39.6297 C   0  0  0  0  0  0  0  0  0  0  0  0
  -23.0755    4.8725   40.1446 C   0  0  0  0  0  0  0  0  0  0  0  0
  3  7  1  0
  7  8  1  0
  7  9  1  0
  7 10  1  0
  2 11  1  0
 11 12  2  0
 11 13  1  0
  6 14  1  0
 14 15  2  3
 14 16  1  0
 15 17  1  0
 17 18  1  0
 23 24  1  0
 25 30  1  0
 30 31  1  0
 31 32  2  3
 32 33  1  0
 33 34  2  3
 34 35  1  0
 18 19  2  0
 19 20  1  0
 20 21  2  0
 21 22  1  0
 22 23  2  0
 23 18  1  0
 24 25  2  0
 25 26  1  0
 26 27  2  0
 27 28  1  0
 28 29  2  0
 29 24  1  0
  1  2  2  0
  2  5  1  0
  5  6  2  0
  6  4  1  0
  4  3  2  0
  3  1  1  0
M  END

$$$$
