No_4998-gen_results/8p0m/2024-11-27-11-27-31/
     RDKit          3D

 21 23  0  0  0  0  0  0  0  0999 V2000
  -28.0162   -0.8135   28.8779 C   0  0  0  0  0  0  0  0  0  0  0  0
  -27.0636   -0.1189   28.6079 C   0  0  0  0  0  0  0  0  0  0  0  0
  -27.0010    0.6913   27.4910 C   0  0  0  0  0  0  0  0  0  0  0  0
  -28.1373    0.7363   26.6350 C   0  0  0  0  0  0  0  0  0  0  0  0
  -29.2360    0.0765   27.0690 C   0  0  0  0  0  0  0  0  0  0  0  0
  -29.2177   -0.6429   28.1747 C   0  0  0  0  0  0  0  0  0  0  0  0
  -30.4152    0.1590   26.1820 C   0  0  0  0  0  0  0  0  0  0  0  0
  -31.3727   -0.5052   26.4854 N   0  0  0  0  0  0  0  0  0  0  0  0
  -30.5283    1.1022   25.3699 O   0  0  0  0  0  0  0  0  0  0  0  0
  -32.2939   -0.8421   25.8823 C   0  0  0  0  0  0  0  0  0  0  0  0
  -25.5305   -0.2350   29.5642 Cl  0  0  0  0  0  0  0  0  0  0  0  0
  -33.0784   -1.9392   26.2147 C   0  0  0  0  0  0  0  0  0  0  0  0
  -32.8180   -2.5753   27.3754 C   0  0  0  0  0  0  0  0  0  0  0  0
  -31.8370   -2.2573   28.1871 C   0  0  0  0  0  0  0  0  0  0  0  0
  -31.0073   -1.2906   27.7406 C   0  0  0  0  0  0  0  0  0  0  0  0
  -29.6273   -0.3300   29.5190 O   0  0  0  0  0  0  0  0  0  0  0  0
  -30.8379   -0.7919   28.6322 O   0  0  0  0  0  0  0  0  0  0  0  0
  -31.7382   -0.5093   29.7684 C   0  0  0  0  0  0  0  0  0  0  0  0
  -29.5378    0.0068   30.5069 C   0  0  0  0  0  0  0  0  0  0  0  0
  -32.8416   -0.6377   29.8149 C   0  0  0  0  0  0  0  0  0  0  0  0
  -30.9998    0.0920   30.9567 C   0  0  0  0  0  0  0  0  0  0  0  0
  5  7  1  0
  7  8  1  0
  7  9  2  0
  8 10  1  0
  2 11  1  0
 12 13  1  0
  8 15  1  0
 14 15  1  0
  6 16  1  0
 15 17  1  0
 17 18  1  0
 16 19  1  0
 18 20  2  0
 18 21  1  0
 19 21  1  0
 10 12  1  0
 13 14  1  0
  1  2  2  0
  2  3  1  0
  3  4  2  0
  4  5  1  0
  5  6  2  0
  6  1  1  0
M  END

$$$$
