No_4459-gen_results/8p0m/2024-11-27-11-27-31/
     RDKit          3D

 20 21  0  0  0  0  0  0  0  0999 V2000
  -28.0162   -0.8135   28.8779 C   0  0  0  0  0  0  0  0  0  0  0  0
  -28.4690   -0.7850   29.8287 C   0  0  0  0  0  0  0  0  0  0  0  0
  -26.5455   -0.8762   28.8500 C   0  0  0  0  0  0  0  0  0  0  0  0
  -25.8974   -0.8267   29.8894 C   0  0  0  0  0  0  0  0  0  0  0  0
  -26.4945   -0.7976   31.1740 C   0  0  0  0  0  0  0  0  0  0  0  0
  -27.8589   -0.7585   31.1651 C   0  0  0  0  0  0  0  0  0  0  0  0
  -24.4068   -0.9454   30.1386 C   0  0  0  0  0  0  0  0  0  0  0  0
  -23.6162    0.0516   29.5153 C   0  0  0  0  0  0  0  0  0  0  0  0
  -23.9026    1.3414   29.5560 C   0  0  0  0  0  0  0  0  0  0  0  0
  -23.5033    2.2068   28.6633 C   0  0  0  0  0  0  0  0  0  0  0  0
  -22.4864    1.8361   27.7399 C   0  0  0  0  0  0  0  0  0  0  0  0
  -22.0435    0.5510   27.7730 C   0  0  0  0  0  0  0  0  0  0  0  0
  -22.6414   -0.3911   28.6427 C   0  0  0  0  0  0  0  0  0  0  0  0
  -25.8407   -0.8522   27.6411 O   0  0  0  0  0  0  0  0  0  0  0  0
  -30.0721   -0.7488   29.9191 C   0  0  0  0  0  0  0  0  0  0  0  0
  -30.6628   -0.2075   30.8458 O   0  0  0  0  0  0  0  0  0  0  0  0
  -30.6805   -1.4686   29.0988 O   0  0  0  0  0  0  0  0  0  0  0  0
  -26.1803   -0.0398   26.6111 C   0  0  0  0  0  0  0  0  0  0  0  0
  -26.4872    1.2814   26.8341 C   0  0  0  0  0  0  0  0  0  0  0  0
  -26.7486    2.0300   26.0188 C   0  0  0  0  0  0  0  0  0  0  0  0
  4  7  1  0
  7  8  1  0
  3 14  1  0
  2 15  1  0
 15 16  1  0
 15 17  2  0
 14 18  1  0
 18 19  2  3
 19 20  1  0
  1  2  2  0
  2  6  1  0
  6  5  2  0
  5  4  1  0
  4  3  2  0
  3  1  1  0
  8  9  2  0
  9 10  1  0
 10 11  2  0
 11 12  1  0
 12 13  2  0
 13  8  1  0
M  END

$$$$
