No_4133-gen_results/8p0m/2024-11-27-11-27-31/
     RDKit          3D

 24 25  0  0  0  0  0  0  0  0999 V2000
  -28.0162   -0.8135   28.8779 C   0  0  0  0  0  0  0  0  0  0  0  0
  -28.4690   -0.7850   29.8287 C   0  0  0  0  0  0  0  0  0  0  0  0
  -26.5042   -0.7777   28.8766 C   0  0  0  0  0  0  0  0  0  0  0  0
  -25.8305   -1.6808   29.6849 C   0  0  0  0  0  0  0  0  0  0  0  0
  -28.1490   -1.8854   30.9031 C   0  0  0  0  0  0  0  0  0  0  0  0
  -26.6460   -1.9561   31.0330 C   0  0  0  0  0  0  0  0  0  0  0  0
  -28.5823   -3.1584   30.5023 O   0  0  0  0  0  0  0  0  0  0  0  0
  -26.1739   -0.8711   31.8577 O   0  0  0  0  0  0  0  0  0  0  0  0
  -24.2289   -1.4207   30.0230 Cl  0  0  0  0  0  0  0  0  0  0  0  0
  -29.9315   -1.0043   29.8345 F   0  0  0  0  0  0  0  0  0  0  0  0
  -28.0908    0.4664   30.6077 C   0  0  0  0  0  0  0  0  0  0  0  0
  -28.6376    0.7504   31.6575 C   0  0  0  0  0  0  0  0  0  0  0  0
  -28.3864    2.0220   32.2319 C   0  0  0  0  0  0  0  0  0  0  0  0
  -28.0759    2.8970   31.8118 C   0  0  0  0  0  0  0  0  0  0  0  0
  -27.5030    2.7515   30.3882 C   0  0  0  0  0  0  0  0  0  0  0  0
  -27.5573    1.5417   29.7968 C   0  0  0  0  0  0  0  0  0  0  0  0
  -25.8688   -3.0761   29.0509 O   0  0  0  0  0  0  0  0  0  0  0  0
  -29.1279   -4.2547   31.5149 P   0  0  0  0  0  0  0  0  0  0  0  0
  -29.0158   -3.9520   32.7774 O   0  0  0  0  0  0  0  0  0  0  0  0
  -30.6022   -4.3955   31.0053 O   0  0  0  0  0  0  0  0  0  0  0  0
  -28.3678   -5.4814   30.9884 O   0  0  0  0  0  0  0  0  0  0  0  0
  -30.9603   -4.5051   29.9918 F   0  0  0  0  0  0  0  0  0  0  0  0
  -24.6491   -3.7919   29.1972 C   0  0  0  0  0  0  0  0  0  0  0  0
  -24.8073   -5.1884   28.6727 C   0  0  0  0  0  0  0  0  0  0  0  0
  1  2  1  0
  1  3  1  0
  3  4  1  0
  2  5  1  0
  4  6  1  0
  5  6  1  0
  5  7  1  0
  6  8  1  0
  4  9  1  0
  2 10  1  0
  2 11  1  0
  4 17  1  0
  7 18  1  0
 18 19  1  0
 18 20  1  0
 18 21  2  0
 20 22  1  0
 17 23  1  0
 23 24  1  0
 11 12  2  0
 12 13  1  0
 13 14  2  0
 14 15  1  0
 15 16  2  0
 16 11  1  0
M  END

$$$$
