No_461-gen_results/8p0m/2024-11-27-11-27-31/
     RDKit          3D

 13 13  0  0  0  0  0  0  0  0999 V2000
  -28.0162   -0.8135   28.8779 C   0  0  0  0  0  0  0  0  0  0  0  0
  -28.4690   -0.7850   29.8287 C   0  0  0  0  0  0  0  0  0  0  0  0
  -28.1960    0.3478   28.0550 C   0  0  0  0  0  0  0  0  0  0  0  0
  -29.0191    1.3501   28.3782 C   0  0  0  0  0  0  0  0  0  0  0  0
  -29.6249    1.2683   29.6012 C   0  0  0  0  0  0  0  0  0  0  0  0
  -29.3821    0.1816   30.4004 C   0  0  0  0  0  0  0  0  0  0  0  0
  -27.4591    0.3787   26.7048 C   0  0  0  0  0  0  0  0  0  0  0  0
  -26.1348    0.3565   26.8183 C   0  0  0  0  0  0  0  0  0  0  0  0
  -25.3867    0.0255   27.9208 C   0  0  0  0  0  0  0  0  0  0  0  0
  -23.9776    0.0231   27.9125 C   0  0  0  0  0  0  0  0  0  0  0  0
  -23.2128   -0.3716   29.0874 C   0  0  0  0  0  0  0  0  0  0  0  0
  -23.8141   -1.1949   30.0213 C   0  0  0  0  0  0  0  0  0  0  0  0
  -25.1804   -1.3032   30.0025 C   0  0  0  0  0  0  0  0  0  0  0  0
  3  7  1  0
  7  8  1  0
  8  9  2  3
  9 10  1  0
 10 11  1  0
 11 12  2  3
 12 13  1  0
  1  2  2  0
  2  6  1  0
  6  5  2  0
  5  4  1  0
  4  3  2  0
  3  1  1  0
M  END

$$$$
