No_4130-gen_results/8p0m/2024-11-27-11-27-31/
     RDKit          3D

 22 24  0  0  0  0  0  0  0  0999 V2000
  -28.0162   -0.8135   28.8779 C   0  0  0  0  0  0  0  0  0  0  0  0
  -28.4690   -0.7850   29.8287 C   0  0  0  0  0  0  0  0  0  0  0  0
  -28.1816    0.4277   28.1134 C   0  0  0  0  0  0  0  0  0  0  0  0
  -28.9841    1.4155   28.5154 C   0  0  0  0  0  0  0  0  0  0  0  0
  -29.3802    0.1384   30.4612 C   0  0  0  0  0  0  0  0  0  0  0  0
  -29.5415    1.2736   29.7242 C   0  0  0  0  0  0  0  0  0  0  0  0
  -27.4586    0.4934   26.7701 C   0  0  0  0  0  0  0  0  0  0  0  0
  -26.0263    0.3840   26.7617 C   0  0  0  0  0  0  0  0  0  0  0  0
  -25.3148    0.0488   27.8701 C   0  0  0  0  0  0  0  0  0  0  0  0
  -24.0279    0.2973   28.0842 C   0  0  0  0  0  0  0  0  0  0  0  0
  -23.2883   -0.2218   29.2292 C   0  0  0  0  0  0  0  0  0  0  0  0
  -21.9474    0.1513   29.4418 C   0  0  0  0  0  0  0  0  0  0  0  0
  -21.2790    0.9379   28.4688 C   0  0  0  0  0  0  0  0  0  0  0  0
  -22.0529    1.5818   27.4475 C   0  0  0  0  0  0  0  0  0  0  0  0
  -23.3468    1.3205   27.3318 C   0  0  0  0  0  0  0  0  0  0  0  0
  -28.2416    0.5532   25.6303 C   0  0  0  0  0  0  0  0  0  0  0  0
  -29.3134    0.0303   25.4580 C   0  0  0  0  0  0  0  0  0  0  0  0
  -30.0730   -0.6446   26.4554 C   0  0  0  0  0  0  0  0  0  0  0  0
  -31.3802   -1.2362   26.1044 C   0  0  0  0  0  0  0  0  0  0  0  0
  -31.6348   -1.3122   24.7545 C   0  0  0  0  0  0  0  0  0  0  0  0
  -30.8623   -0.7693   23.7426 C   0  0  0  0  0  0  0  0  0  0  0  0
  -29.7660   -0.0929   24.0879 C   0  0  0  0  0  0  0  0  0  0  0  0
  3  7  1  0
  7  8  1  0
  8  9  2  3
  9 10  1  0
  7 16  1  0
 16 17  1  0
 17 18  2  0
 18 19  1  0
 19 20  2  0
 20 21  1  0
 21 22  2  0
 22 17  1  0
  1  2  2  0
  2  5  1  0
  5  6  2  0
  6  4  1  0
  4  3  2  0
  3  1  1  0
 10 11  2  0
 11 12  1  0
 12 13  2  0
 13 14  1  0
 14 15  2  0
 15 10  1  0
M  END

$$$$
