No_4904-gen_results/8p0m/2024-11-27-11-27-31/
     RDKit          3D

 17 17  0  0  0  0  0  0  0  0999 V2000
  -28.0162   -0.8135   28.8779 C   0  0  0  0  0  0  0  0  0  0  0  0
  -27.0636   -0.1189   28.6079 C   0  0  0  0  0  0  0  0  0  0  0  0
  -25.7923   -0.4302   29.0761 C   0  0  0  0  0  0  0  0  0  0  0  0
  -24.5456    0.3494   28.8225 C   0  0  0  0  0  0  0  0  0  0  0  0
  -24.6586    1.4196   27.8878 C   0  0  0  0  0  0  0  0  0  0  0  0
  -25.9471    1.6811   27.3792 C   0  0  0  0  0  0  0  0  0  0  0  0
  -27.0439    0.9739   27.6871 C   0  0  0  0  0  0  0  0  0  0  0  0
  -28.6643   -0.5274   30.1017 N   0  0  0  0  0  0  0  0  0  0  0  0
  -29.6646   -0.3963   30.4406 C   0  0  0  0  0  0  0  0  0  0  0  0
  -30.7089   -0.3998   29.4954 C   0  0  0  0  0  0  0  0  0  0  0  0
  -30.0775    0.1990   31.5359 O   0  0  0  0  0  0  0  0  0  0  0  0
  -23.4507    2.1663   27.5984 C   0  0  0  0  0  0  0  0  0  0  0  0
  -22.4889    2.0040   28.1882 F   0  0  0  0  0  0  0  0  0  0  0  0
  -23.7272    3.4914   27.5138 F   0  0  0  0  0  0  0  0  0  0  0  0
  -31.8000   -0.0400   29.7764 C   0  0  0  0  0  0  0  0  0  0  0  0
  -32.2122    1.0953   29.7565 C   0  0  0  0  0  0  0  0  0  0  0  0
  -33.6392    1.4884   29.7104 C   0  0  0  0  0  0  0  0  0  0  0  0
  1  2  1  0
  1  8  1  0
  8  9  1  0
  9 10  1  0
  9 11  2  0
  5 12  1  0
 12 13  1  0
 12 14  1  0
 10 15  3  0
 15 16  1  0
 16 17  2  0
  2  3  2  0
  3  4  1  0
  4  5  2  0
  5  6  1  0
  6  7  2  0
  7  2  1  0
M  END

$$$$
