No_4022-gen_results/8p0m/2024-11-27-11-27-31/
     RDKit          3D

 35 38  0  0  0  0  0  0  0  0999 V2000
  -28.0162   -0.8135   28.8779 C   0  0  0  0  0  0  0  0  0  0  0  0
  -28.4690   -0.7850   29.8287 C   0  0  0  0  0  0  0  0  0  0  0  0
  -27.0871    0.2903   28.6377 C   0  0  0  0  0  0  0  0  0  0  0  0
  -26.9102    0.8486   27.4199 C   0  0  0  0  0  0  0  0  0  0  0  0
  -27.8863   -0.5049   31.0945 C   0  0  0  0  0  0  0  0  0  0  0  0
  -26.9294    0.5930   31.0741 C   0  0  0  0  0  0  0  0  0  0  0  0
  -26.5225    0.9550   29.8008 C   0  0  0  0  0  0  0  0  0  0  0  0
  -26.0918    1.8857   27.1882 C   0  0  0  0  0  0  0  0  0  0  0  0
  -25.4021    2.4974   28.3407 C   0  0  0  0  0  0  0  0  0  0  0  0
  -25.6781    2.1144   29.5745 C   0  0  0  0  0  0  0  0  0  0  0  0
  -27.3883    0.2274   26.1604 C   0  0  0  0  0  0  0  0  0  0  0  0
  -28.1796    0.7351   25.4879 C   0  0  0  0  0  0  0  0  0  0  0  0
  -29.3281    0.6966   25.5002 C   0  0  0  0  0  0  0  0  0  0  0  0
  -30.1993    1.3343   24.5119 C   0  0  0  0  0  0  0  0  0  0  0  0
  -31.6006    1.3544   24.5309 C   0  0  0  0  0  0  0  0  0  0  0  0
  -27.5912    1.5023   24.3043 C   0  0  0  0  0  0  0  0  0  0  0  0
  -28.3038    2.1517   23.3617 C   0  0  0  0  0  0  0  0  0  0  0  0
  -29.6114    2.0467   23.4734 C   0  0  0  0  0  0  0  0  0  0  0  0
  -29.4610   -1.8444   30.0890 O   0  0  0  0  0  0  0  0  0  0  0  0
  -30.5420   -1.5931   30.8375 C   0  0  0  0  0  0  0  0  0  0  0  0
  -31.6246   -1.8180   30.1848 C   0  0  0  0  0  0  0  0  0  0  0  0
  -31.8257   -2.7196   29.2384 C   0  0  0  0  0  0  0  0  0  0  0  0
  -31.5606   -3.8711   29.4650 O   0  0  0  0  0  0  0  0  0  0  0  0
  -32.8003   -1.8436   31.0776 O   0  0  0  0  0  0  0  0  0  0  0  0
  -32.3514   -2.5610   28.0791 O   0  0  0  0  0  0  0  0  0  0  0  0
  -32.3183    2.0509   25.2138 C   0  0  0  0  0  0  0  0  0  0  0  0
  -33.7428    2.0372   25.3263 C   0  0  0  0  0  0  0  0  0  0  0  0
  -32.2794    0.3895   23.6387 C   0  0  0  0  0  0  0  0  0  0  0  0
  -33.6523    0.2207   23.6684 C   0  0  0  0  0  0  0  0  0  0  0  0
  -34.3958    1.0666   24.5158 C   0  0  0  0  0  0  0  0  0  0  0  0
  -24.9934    2.7078   30.7218 C   0  0  0  0  0  0  0  0  0  0  0  0
  -25.0801    3.8710   31.1829 O   0  0  0  0  0  0  0  0  0  0  0  0
  -24.0672    1.8367   31.2962 O   0  0  0  0  0  0  0  0  0  0  0  0
  -33.4579   -0.7702   31.2664 C   0  0  0  0  0  0  0  0  0  0  0  0
  -34.5751   -0.7602   31.0767 C   0  0  0  0  0  0  0  0  0  0  0  0
  4 11  1  0
 11 12  1  0
 14 15  1  0
  2 19  1  0
 19 20  1  0
 20 21  1  0
 21 22  1  0
 22 23  2  0
 21 24  1  0
 22 25  1  0
 10 31  1  0
 31 32  2  0
 31 33  1  0
 24 34  1  0
 34 35  2  0
 12 13  2  0
 13 14  1  0
 14 18  2  0
 18 17  1  0
 17 16  2  0
 16 12  1  0
  1  2  2  0
  2  5  1  0
  5  6  2  0
  6  7  1  0
  3  1  1  0
 15 26  2  0
 26 27  1  0
 27 30  2  0
 30 29  1  0
 29 28  2  0
 28 15  1  0
  3  4  2  0
  4  8  1  0
  8  9  2  0
  9 10  1  0
 10  7  2  0
  7  3  1  0
M  END

$$$$
