No_41-gen_results/8p0m/2024-11-27-11-27-31/
     RDKit          3D

 14 14  0  0  0  0  0  0  0  0999 V2000
  -28.0162   -0.8135   28.8779 C   0  0  0  0  0  0  0  0  0  0  0  0
  -28.4690   -0.7850   29.8287 C   0  0  0  0  0  0  0  0  0  0  0  0
  -27.1356    0.2359   28.5352 C   0  0  0  0  0  0  0  0  0  0  0  0
  -26.8050    1.0509   29.2763 C   0  0  0  0  0  0  0  0  0  0  0  0
  -28.2372    0.1503   30.9300 C   0  0  0  0  0  0  0  0  0  0  0  0
  -27.3522    1.1239   30.6071 C   0  0  0  0  0  0  0  0  0  0  0  0
  -26.4616    0.1962   27.1371 C   0  0  0  0  0  0  0  0  0  0  0  0
  -25.0613    0.4250   27.0907 C   0  0  0  0  0  0  0  0  0  0  0  0
  -24.5112    1.2826   28.0767 C   0  0  0  0  0  0  0  0  0  0  0  0
  -25.3143    1.5458   29.2972 C   0  0  0  0  0  0  0  0  0  0  0  0
  -24.7174    2.4410   30.2813 C   0  0  0  0  0  0  0  0  0  0  0  0
  -24.8058    2.1955   29.8765 Cl  0  0  0  0  0  0  0  0  0  0  0  0
  -24.5930    0.8926   28.7651 F   0  0  0  0  0  0  0  0  0  0  0  0
  -25.7879    1.8936   28.4117 F   0  0  0  0  0  0  0  0  0  0  0  0
  3  7  1  0
  7  8  2  3
  8  9  1  0
  9 10  2  3
 10 11  1  0
 11 12  1  0
  9 13  1  0
 10 14  1  0
  1  2  2  0
  2  5  1  0
  5  6  2  0
  6  4  1  0
  4  3  2  0
  3  1  1  0
M  END

$$$$
