No_4664-gen_results/8p0m/2024-11-27-11-27-31/
     RDKit          3D

 15 16  0  0  0  0  0  0  0  0999 V2000
  -28.1229   -1.3353   28.4874 O   0  0  0  0  0  0  0  0  0  0  0  0
  -27.4806   -0.4044   28.7094 C   0  0  0  0  0  0  0  0  0  0  0  0
  -27.1904    0.2460   29.5268 C   0  0  0  0  0  0  0  0  0  0  0  0
  -26.6021   -0.1576   27.5515 N   0  0  0  0  0  0  0  0  0  0  0  0
  -25.6421    0.9031   27.5822 C   0  0  0  0  0  0  0  0  0  0  0  0
  -25.5004    1.6142   28.7368 C   0  0  0  0  0  0  0  0  0  0  0  0
  -26.2553    1.3158   29.8133 C   0  0  0  0  0  0  0  0  0  0  0  0
  -24.8953    1.1477   26.4948 N   0  0  0  0  0  0  0  0  0  0  0  0
  -23.8683    1.5970   26.4352 C   0  0  0  0  0  0  0  0  0  0  0  0
  -23.4178    2.4306   27.6619 C   0  0  0  0  0  0  0  0  0  0  0  0
  -24.2735    2.4114   28.7213 C   0  0  0  0  0  0  0  0  0  0  0  0
  -28.0190   -0.2151   30.7903 C   0  0  0  0  0  0  0  0  0  0  0  0
  -28.5623   -1.2176   30.4257 F   0  0  0  0  0  0  0  0  0  0  0  0
  -27.1657   -0.2991   31.8468 F   0  0  0  0  0  0  0  0  0  0  0  0
  -28.7233    0.8973   31.2140 F   0  0  0  0  0  0  0  0  0  0  0  0
  1  2  2  0
  2  3  1  0
  2  4  1  0
  4  5  1  0
  3 12  1  0
 12 13  1  0
 12 14  1  0
 12 15  1  0
  3  7  1  0
  7  6  1  0
  5  6  2  0
  6 11  1  0
 11 10  2  0
 10  9  1  0
  9  8  2  0
  8  5  1  0
M  END

$$$$
