No_475-gen_results/8p0m/2024-11-27-11-27-31/
     RDKit          3D

 18 19  0  0  0  0  0  0  0  0999 V2000
  -28.1493   -0.8198   28.9079 Cl  0  0  0  0  0  0  0  0  0  0  0  0
  -26.9116   -0.0797   28.9452 C   0  0  0  0  0  0  0  0  0  0  0  0
  -25.9665   -0.2123   29.6235 C   0  0  0  0  0  0  0  0  0  0  0  0
  -24.7040    0.5534   29.6218 C   0  0  0  0  0  0  0  0  0  0  0  0
  -24.5238    1.1992   28.7552 C   0  0  0  0  0  0  0  0  0  0  0  0
  -23.2532    2.0374   28.5593 C   0  0  0  0  0  0  0  0  0  0  0  0
  -25.5410    1.4348   27.7485 C   0  0  0  0  0  0  0  0  0  0  0  0
  -26.6303    0.7453   27.8390 C   0  0  0  0  0  0  0  0  0  0  0  0
  -22.8120    2.3559   27.3042 N   0  0  0  0  0  0  0  0  0  0  0  0
  -25.1536    2.2381   26.5453 C   0  0  0  0  0  0  0  0  0  0  0  0
  -23.8140    2.7131   26.4020 C   0  0  0  0  0  0  0  0  0  0  0  0
  -27.5672    0.8399   26.8502 O   0  0  0  0  0  0  0  0  0  0  0  0
  -28.7756    1.2080   27.0890 C   0  0  0  0  0  0  0  0  0  0  0  0
  -29.7246    0.6078   26.1664 C   0  0  0  0  0  0  0  0  0  0  0  0
  -29.4091    0.3413   25.0024 C   0  0  0  0  0  0  0  0  0  0  0  0
  -30.2735   -0.4556   24.0757 C   0  0  0  0  0  0  0  0  0  0  0  0
  -31.4484   -0.7710   24.6436 C   0  0  0  0  0  0  0  0  0  0  0  0
  -31.8511   -0.5393   25.9357 C   0  0  0  0  0  0  0  0  0  0  0  0
  1  2  1  0
  8 12  1  0
 12 13  1  0
 13 14  1  0
 14 15  3  0
 15 16  1  0
 16 17  2  3
 17 18  1  0
  5  6  1  0
  6  9  2  0
  9 11  1  0
 11 10  2  0
 10  7  1  0
  2  3  2  0
  3  4  1  0
  4  5  2  0
  5  7  1  0
  7  8  2  0
  8  2  1  0
M  END

$$$$
