No_4834-gen_results/8p0m/2024-11-27-11-27-31/
     RDKit          3D

  9  9  0  0  0  0  0  0  0  0999 V2000
  -28.0727   -1.2542   28.5316 F   0  0  0  0  0  0  0  0  0  0  0  0
  -27.3591   -0.3792   28.7224 C   0  0  0  0  0  0  0  0  0  0  0  0
  -26.8100    0.1885   27.6513 C   0  0  0  0  0  0  0  0  0  0  0  0
  -26.4749    1.1427   27.2879 C   0  0  0  0  0  0  0  0  0  0  0  0
  -25.9046    1.5943   25.9588 C   0  0  0  0  0  0  0  0  0  0  0  0
  -25.7578    0.5337   25.0691 C   0  0  0  0  0  0  0  0  0  0  0  0
  -26.0594   -0.7217   25.4889 C   0  0  0  0  0  0  0  0  0  0  0  0
  -26.5017   -0.9053   26.6659 C   0  0  0  0  0  0  0  0  0  0  0  0
  -28.0678    0.6794   29.4547 F   0  0  0  0  0  0  0  0  0  0  0  0
  1  2  1  0
  2  9  1  0
  2  3  1  0
  3  4  2  0
  4  5  1  0
  5  6  2  0
  6  7  1  0
  7  8  2  0
  8  3  1  0
M  END

$$$$
