No_4976-gen_results/8p0m/2024-11-27-11-27-31/
     RDKit          3D

 15 16  0  0  0  0  0  0  0  0999 V2000
  -28.0162   -0.8135   28.8779 C   0  0  0  0  0  0  0  0  0  0  0  0
  -28.4690   -0.7850   29.8287 C   0  0  0  0  0  0  0  0  0  0  0  0
  -26.5042   -0.7777   28.8766 C   0  0  0  0  0  0  0  0  0  0  0  0
  -25.8103   -0.8531   30.1028 C   0  0  0  0  0  0  0  0  0  0  0  0
  -27.9906   -0.8916   31.2257 C   0  0  0  0  0  0  0  0  0  0  0  0
  -26.6042   -0.8676   31.2652 C   0  0  0  0  0  0  0  0  0  0  0  0
  -29.9385   -0.8194   29.8358 O   0  0  0  0  0  0  0  0  0  0  0  0
  -30.6978   -1.6543   30.3501 C   0  0  0  0  0  0  0  0  0  0  0  0
  -24.5230   -0.7894   30.1317 F   0  0  0  0  0  0  0  0  0  0  0  0
  -30.5524   -2.6037   30.8118 C   0  0  0  0  0  0  0  0  0  0  0  0
  -29.1890   -3.2013   30.8150 C   0  0  0  0  0  0  0  0  0  0  0  0
  -28.6690   -4.0329   30.2671 C   0  0  0  0  0  0  0  0  0  0  0  0
  -29.3903   -4.9583   29.3851 C   0  0  0  0  0  0  0  0  0  0  0  0
  -27.2419   -4.4799   30.3048 C   0  0  0  0  0  0  0  0  0  0  0  0
  -28.4250   -2.5379   31.8022 O   0  0  0  0  0  0  0  0  0  0  0  0
  2  7  1  0
  7  8  1  0
  4  9  1  0
  8 10  2  0
 10 11  1  0
 11 12  2  3
 12 13  1  0
 12 14  1  0
  5 15  1  0
 11 15  1  0
  1  2  2  0
  2  5  1  0
  5  6  2  0
  6  4  1  0
  4  3  2  0
  3  1  1  0
M  END

$$$$
