No_4343-gen_results/8p0m/2024-11-27-11-27-31/
     RDKit          3D

 24 26  0  0  0  0  0  0  0  0999 V2000
  -28.1229   -1.3353   28.4874 O   0  0  0  0  0  0  0  0  0  0  0  0
  -27.0637   -0.8242   28.8687 C   0  0  0  0  0  0  0  0  0  0  0  0
  -26.4017   -0.0623   28.6224 C   0  0  0  0  0  0  0  0  0  0  0  0
  -26.2652   -1.8674   29.7609 N   0  0  0  0  0  0  0  0  0  0  0  0
  -25.0436    0.3924   29.0662 C   0  0  0  0  0  0  0  0  0  0  0  0
  -24.4726   -0.5445   29.9870 C   0  0  0  0  0  0  0  0  0  0  0  0
  -25.1332   -1.6696   30.2893 C   0  0  0  0  0  0  0  0  0  0  0  0
  -26.9049    1.1098   27.6518 C   0  0  0  0  0  0  0  0  0  0  0  0
  -27.3131    2.0138   27.9031 C   0  0  0  0  0  0  0  0  0  0  0  0
  -26.7694    0.5719   26.2165 C   0  0  0  0  0  0  0  0  0  0  0  0
  -27.4023    1.1752   25.1704 C   0  0  0  0  0  0  0  0  0  0  0  0
  -27.9474    2.9381   26.8733 C   0  0  0  0  0  0  0  0  0  0  0  0
  -27.9408    2.4954   25.5104 C   0  0  0  0  0  0  0  0  0  0  0  0
  -27.0673   -3.0954   30.1173 C   0  0  0  0  0  0  0  0  0  0  0  0
  -28.1950   -3.0065   30.9392 C   0  0  0  0  0  0  0  0  0  0  0  0
  -28.5701   -1.8232   31.4565 C   0  0  0  0  0  0  0  0  0  0  0  0
  -29.5133   -1.6134   32.2105 C   0  0  0  0  0  0  0  0  0  0  0  0
  -30.2942   -2.7674   32.6143 C   0  0  0  0  0  0  0  0  0  0  0  0
  -28.9285   -4.1290   31.3195 C   0  0  0  0  0  0  0  0  0  0  0  0
  -29.9894   -4.0392   32.1617 C   0  0  0  0  0  0  0  0  0  0  0  0
  -26.5892   -4.1183   29.6022 O   0  0  0  0  0  0  0  0  0  0  0  0
  -23.1334   -0.2046   30.5658 C   0  0  0  0  0  0  0  0  0  0  0  0
  -22.4621    0.7631   30.1735 O   0  0  0  0  0  0  0  0  0  0  0  0
  -22.6923   -0.9306   31.6023 O   0  0  0  0  0  0  0  0  0  0  0  0
  1  2  2  0
  2  3  1  0
  2  4  1  0
  5  6  1  0
  4  7  1  0
  3  8  1  0
  4 14  1  0
 14 15  1  0
 14 21  2  0
  6 22  1  0
 22 23  2  0
 22 24  1  0
  3  5  1  0
  6  7  1  0
 15 16  2  0
 16 17  1  0
 17 18  2  0
 18 20  1  0
 20 19  2  0
 19 15  1  0
  8  9  2  0
  9 12  1  0
 12 13  2  0
 13 11  1  0
 11 10  2  0
 10  8  1  0
M  END

$$$$
