No_4940-gen_results/8p0m/2024-11-27-11-27-31/
     RDKit          3D

 17 19  0  0  0  0  0  0  0  0999 V2000
  -28.0162   -0.8135   28.8779 C   0  0  0  0  0  0  0  0  0  0  0  0
  -27.0636   -0.1189   28.6079 C   0  0  0  0  0  0  0  0  0  0  0  0
  -26.9287    1.1713   29.0083 C   0  0  0  0  0  0  0  0  0  0  0  0
  -27.9560    1.7411   29.7840 C   0  0  0  0  0  0  0  0  0  0  0  0
  -29.0569   -0.3271   29.7466 C   0  0  0  0  0  0  0  0  0  0  0  0
  -28.9828    0.9722   30.1516 C   0  0  0  0  0  0  0  0  0  0  0  0
  -25.8361   -0.4299   27.7492 C   0  0  0  0  0  0  0  0  0  0  0  0
  -25.2944    0.4483   26.8850 C   0  0  0  0  0  0  0  0  0  0  0  0
  -25.2557    1.7951   27.3088 C   0  0  0  0  0  0  0  0  0  0  0  0
  -26.2138    2.2203   28.2236 C   0  0  0  0  0  0  0  0  0  0  0  0
  -24.3304    2.6989   26.5846 C   0  0  0  0  0  0  0  0  0  0  0  0
  -24.2703    3.9278   26.9483 N   0  0  0  0  0  0  0  0  0  0  0  0
  -23.5074    2.2858   25.7213 O   0  0  0  0  0  0  0  0  0  0  0  0
  -30.2054   -1.4679   30.3329 Cl  0  0  0  0  0  0  0  0  0  0  0  0
  -25.1068    4.5481   27.9243 C   0  0  0  0  0  0  0  0  0  0  0  0
  -26.0732    3.6210   28.6422 C   0  0  0  0  0  0  0  0  0  0  0  0
  -26.8438    4.1162   29.5952 O   0  0  0  0  0  0  0  0  0  0  0  0
  9 11  1  0
 11 12  1  0
 11 13  2  0
  5 14  1  0
 12 15  1  0
 10 16  1  0
 15 16  1  0
 16 17  2  0
  1  2  2  0
  3  4  2  0
  4  6  1  0
  6  5  2  0
  5  1  1  0
  2  3  1  0
  3 10  1  0
 10  9  2  0
  9  8  1  0
  8  7  2  0
  7  2  1  0
M  END

$$$$
