No_4093-gen_results/8p0m/2024-11-27-11-27-31/
     RDKit          3D

 13 14  0  0  0  0  0  0  0  0999 V2000
  -28.0162   -0.8135   28.8779 C   0  0  0  0  0  0  0  0  0  0  0  0
  -28.4690   -0.7850   29.8287 C   0  0  0  0  0  0  0  0  0  0  0  0
  -27.1356    0.2359   28.5352 C   0  0  0  0  0  0  0  0  0  0  0  0
  -26.3351    0.2900   27.2835 C   0  0  0  0  0  0  0  0  0  0  0  0
  -28.3692    0.1957   30.9236 C   0  0  0  0  0  0  0  0  0  0  0  0
  -27.5158    1.2655   30.6540 C   0  0  0  0  0  0  0  0  0  0  0  0
  -26.8411    1.2942   29.4761 C   0  0  0  0  0  0  0  0  0  0  0  0
  -25.3613    0.7751   26.9672 C   0  0  0  0  0  0  0  0  0  0  0  0
  -24.8303    1.7670   28.0167 C   0  0  0  0  0  0  0  0  0  0  0  0
  -25.5667    2.0016   29.2020 C   0  0  0  0  0  0  0  0  0  0  0  0
  -23.6195    2.6087   27.6651 C   0  0  0  0  0  0  0  0  0  0  0  0
  -22.9730    2.4244   26.6067 O   0  0  0  0  0  0  0  0  0  0  0  0
  -23.2507    3.5177   28.4246 O   0  0  0  0  0  0  0  0  0  0  0  0
  9 11  1  0
 11 12  2  0
 11 13  1  0
  1  2  2  0
  2  5  1  0
  5  6  2  0
  6  7  1  0
  3  1  1  0
  3  4  2  0
  4  8  1  0
  8  9  2  0
  9 10  1  0
 10  7  2  0
  7  3  1  0
M  END

$$$$
