No_4205-gen_results/8p0m/2024-11-27-11-27-31/
     RDKit          3D

 22 23  0  0  0  0  0  0  0  0999 V2000
  -28.0162   -0.8135   28.8779 C   0  0  0  0  0  0  0  0  0  0  0  0
  -28.4690   -0.7850   29.8287 C   0  0  0  0  0  0  0  0  0  0  0  0
  -26.5455   -0.8762   28.8500 C   0  0  0  0  0  0  0  0  0  0  0  0
  -25.8041   -1.0324   30.0571 C   0  0  0  0  0  0  0  0  0  0  0  0
  -27.9437   -0.9869   31.2075 C   0  0  0  0  0  0  0  0  0  0  0  0
  -24.4008   -1.0969   30.0965 C   0  0  0  0  0  0  0  0  0  0  0  0
  -26.5612   -1.0746   31.2270 C   0  0  0  0  0  0  0  0  0  0  0  0
  -23.7342    0.1405   29.9379 C   0  0  0  0  0  0  0  0  0  0  0  0
  -23.2021    0.5830   28.7744 C   0  0  0  0  0  0  0  0  0  0  0  0
  -21.8545    0.6046   28.7619 C   0  0  0  0  0  0  0  0  0  0  0  0
  -23.9192    1.4480   27.9610 C   0  0  0  0  0  0  0  0  0  0  0  0
  -23.2832    1.9072   26.7435 C   0  0  0  0  0  0  0  0  0  0  0  0
  -21.1364    1.0919   27.6095 C   0  0  0  0  0  0  0  0  0  0  0  0
  -21.8897    1.8782   26.7041 C   0  0  0  0  0  0  0  0  0  0  0  0
  -23.7622    0.9793   31.1677 C   0  0  0  0  0  0  0  0  0  0  0  0
  -30.0896   -0.6721   29.8777 C   0  0  0  0  0  0  0  0  0  0  0  0
  -30.5787    0.3409   30.4523 O   0  0  0  0  0  0  0  0  0  0  0  0
  -30.7334   -1.5301   29.3009 O   0  0  0  0  0  0  0  0  0  0  0  0
  -23.8782    2.6905   25.8867 F   0  0  0  0  0  0  0  0  0  0  0  0
  -23.3197    2.2107   30.9110 F   0  0  0  0  0  0  0  0  0  0  0  0
  -24.1195    0.6540   32.2322 F   0  0  0  0  0  0  0  0  0  0  0  0
  -25.8810   -0.8296   27.7099 O   0  0  0  0  0  0  0  0  0  0  0  0
  4  6  1  0
  6  8  1  0
  8  9  1  0
  8 15  1  0
  2 16  1  0
 16 17  2  0
 16 18  1  0
 12 19  1  0
 15 20  1  0
 15 21  1  0
  3 22  1  0
  9 10  2  0
 10 13  1  0
 13 14  2  0
 14 12  1  0
 12 11  2  0
 11  9  1  0
  1  2  2  0
  2  5  1  0
  5  7  2  0
  7  4  1  0
  4  3  2  0
  3  1  1  0
M  END

$$$$
