No_4125-gen_results/8p0m/2024-11-27-11-27-31/
     RDKit          3D

 17 19  0  0  0  0  0  0  0  0999 V2000
  -28.0162   -0.8135   28.8779 C   0  0  0  0  0  0  0  0  0  0  0  0
  -28.4690   -0.7850   29.8287 C   0  0  0  0  0  0  0  0  0  0  0  0
  -26.5042   -0.7777   28.8766 C   0  0  0  0  0  0  0  0  0  0  0  0
  -25.8103   -0.8531   30.1028 C   0  0  0  0  0  0  0  0  0  0  0  0
  -27.9906   -0.8916   31.2257 C   0  0  0  0  0  0  0  0  0  0  0  0
  -26.6042   -0.8676   31.2652 C   0  0  0  0  0  0  0  0  0  0  0  0
  -29.9808   -0.8491   30.0372 N   0  0  0  0  0  0  0  0  0  0  0  0
  -30.7032   -0.2763   30.8264 C   0  0  0  0  0  0  0  0  0  0  0  0
  -31.9713    0.0952   30.4431 C   0  0  0  0  0  0  0  0  0  0  0  0
  -32.8661    0.8628   31.2393 C   0  0  0  0  0  0  0  0  0  0  0  0
  -32.3506    1.1731   32.5451 C   0  0  0  0  0  0  0  0  0  0  0  0
  -31.1241    0.7879   32.9651 C   0  0  0  0  0  0  0  0  0  0  0  0
  -30.2610    0.1196   32.1514 C   0  0  0  0  0  0  0  0  0  0  0  0
  -30.5822   -1.7212   29.0068 C   0  0  0  0  0  0  0  0  0  0  0  0
  -31.7442   -1.2637   28.4624 C   0  0  0  0  0  0  0  0  0  0  0  0
  -32.6102   -0.5752   29.3727 C   0  0  0  0  0  0  0  0  0  0  0  0
  -28.7979   -0.1273   32.4124 C   0  0  0  0  0  0  0  0  0  0  0  0
  2  7  1  0
  7  8  1  0
  7 14  1  0
 14 15  1  0
  9 16  1  0
 15 16  1  0
 13 17  1  0
  1  2  2  0
  2  5  1  0
  5  6  2  0
  6  4  1  0
  4  3  2  0
  3  1  1  0
  8 13  1  0
 13 12  2  0
 12 11  1  0
 11 10  2  0
 10  9  1  0
  9  8  2  0
M  END

$$$$
