No_446-gen_results/8p0m/2024-11-27-11-27-31/
     RDKit          3D

 35 38  0  0  0  0  0  0  0  0999 V2000
  -28.0162   -0.8135   28.8779 C   0  0  0  0  0  0  0  0  0  0  0  0
  -28.4690   -0.7850   29.8287 C   0  0  0  0  0  0  0  0  0  0  0  0
  -26.5455   -0.8762   28.8500 C   0  0  0  0  0  0  0  0  0  0  0  0
  -25.8041   -1.0324   30.0571 C   0  0  0  0  0  0  0  0  0  0  0  0
  -24.3697   -1.0998   30.0718 C   0  0  0  0  0  0  0  0  0  0  0  0
  -27.9902   -1.0051   31.2092 C   0  0  0  0  0  0  0  0  0  0  0  0
  -26.5616   -1.1368   31.2600 C   0  0  0  0  0  0  0  0  0  0  0  0
  -23.6342   -0.7826   29.0667 C   0  0  0  0  0  0  0  0  0  0  0  0
  -22.1763   -0.6779   29.1657 C   0  0  0  0  0  0  0  0  0  0  0  0
  -21.4400   -0.1303   28.1207 C   0  0  0  0  0  0  0  0  0  0  0  0
  -22.1014    0.8765   27.3078 C   0  0  0  0  0  0  0  0  0  0  0  0
  -23.5471    0.9961   27.3643 C   0  0  0  0  0  0  0  0  0  0  0  0
  -24.2626    0.3021   28.2488 C   0  0  0  0  0  0  0  0  0  0  0  0
  -25.7334   -0.2934   27.8598 N   0  0  0  0  0  0  0  0  0  0  0  0
  -26.2058    0.1296   26.5958 C   0  0  0  0  0  0  0  0  0  0  0  0
  -27.1203    1.1481   26.5082 C   0  0  0  0  0  0  0  0  0  0  0  0
  -27.7454    1.4040   25.4029 C   0  0  0  0  0  0  0  0  0  0  0  0
  -28.7901    2.3685   25.2872 C   0  0  0  0  0  0  0  0  0  0  0  0
  -29.0492    3.2562   26.3767 C   0  0  0  0  0  0  0  0  0  0  0  0
  -28.3172    3.0206   27.5404 C   0  0  0  0  0  0  0  0  0  0  0  0
  -27.4073    2.0682   27.6872 C   0  0  0  0  0  0  0  0  0  0  0  0
  -25.7418   -0.5257   25.7064 O   0  0  0  0  0  0  0  0  0  0  0  0
  -30.1047   -0.7548   29.8797 C   0  0  0  0  0  0  0  0  0  0  0  0
  -30.5917   -0.3525   28.8719 O   0  0  0  0  0  0  0  0  0  0  0  0
  -30.7866   -0.9803   30.8867 O   0  0  0  0  0  0  0  0  0  0  0  0
  -28.6172    3.9763   28.6912 C   0  0  0  0  0  0  0  0  0  0  0  0
  -27.6253    4.5231   29.3545 C   0  0  0  0  0  0  0  0  0  0  0  0
  -26.5213    4.7170   28.9486 O   0  0  0  0  0  0  0  0  0  0  0  0
  -27.9415    5.1712   30.4720 O   0  0  0  0  0  0  0  0  0  0  0  0
  -29.6245    3.4853   29.4806 O   0  0  0  0  0  0  0  0  0  0  0  0
  -31.9497   -0.5140   28.4912 C   0  0  0  0  0  0  0  0  0  0  0  0
  -32.0819    0.0145   27.3194 C   0  0  0  0  0  0  0  0  0  0  0  0
  -32.8458   -0.1069   26.4905 C   0  0  0  0  0  0  0  0  0  0  0  0
  -32.9216    0.5279   25.1170 C   0  0  0  0  0  0  0  0  0  0  0  0
  -31.9899    1.4775   24.8932 C   0  0  0  0  0  0  0  0  0  0  0  0
  4  5  1  0
  3 14  1  0
 13 14  1  0
 14 15  1  0
 15 16  1  0
 15 22  2  0
  2 23  1  0
 23 24  1  0
 23 25  2  0
 20 26  1  0
 26 27  1  0
 27 28  2  0
 27 29  1  0
 26 30  1  0
 24 31  1  0
 31 32  2  3
 32 33  1  0
 33 34  2  3
 34 35  1  0
  5  8  1  0
  1  2  2  0
  2  6  1  0
  6  7  2  0
  7  4  1  0
  4  3  2  0
  3  1  1  0
  8  9  2  0
  9 10  1  0
 10 11  2  0
 11 12  1  0
 12 13  2  0
 13  8  1  0
 16 17  2  0
 17 18  1  0
 18 19  2  0
 19 20  1  0
 20 21  2  0
 21 16  1  0
M  END

$$$$
