No_4432-gen_results/8p0m/2024-11-27-11-27-31/
     RDKit          3D

 30 35  0  0  0  0  0  0  0  0999 V2000
  -28.0162   -0.8135   28.8779 C   0  0  0  0  0  0  0  0  0  0  0  0
  -28.4690   -0.7850   29.8287 C   0  0  0  0  0  0  0  0  0  0  0  0
  -27.0871    0.2903   28.6377 C   0  0  0  0  0  0  0  0  0  0  0  0
  -26.9103    0.8486   27.4199 C   0  0  0  0  0  0  0  0  0  0  0  0
  -29.5034   -1.6160   30.1085 N   0  0  0  0  0  0  0  0  0  0  0  0
  -27.6944    1.0538   26.6233 C   0  0  0  0  0  0  0  0  0  0  0  0
  -29.0521    0.8556   26.9395 C   0  0  0  0  0  0  0  0  0  0  0  0
  -27.9514   -0.1053   31.1168 C   0  0  0  0  0  0  0  0  0  0  0  0
  -26.9533    0.8076   30.9928 C   0  0  0  0  0  0  0  0  0  0  0  0
  -26.4695    1.0250   29.7760 C   0  0  0  0  0  0  0  0  0  0  0  0
  -29.9282    1.0858   26.1986 C   0  0  0  0  0  0  0  0  0  0  0  0
  -31.3634    0.8480   26.5323 C   0  0  0  0  0  0  0  0  0  0  0  0
  -31.5654    0.1773   27.7331 C   0  0  0  0  0  0  0  0  0  0  0  0
  -30.5574   -0.1472   28.5295 C   0  0  0  0  0  0  0  0  0  0  0  0
  -29.2969    0.1686   28.1201 N   0  0  0  0  0  0  0  0  0  0  0  0
  -30.7413   -1.0638   29.6446 C   0  0  0  0  0  0  0  0  0  0  0  0
  -29.4558   -2.8990   30.6492 C   0  0  0  0  0  0  0  0  0  0  0  0
  -30.3815   -3.8562   30.4345 C   0  0  0  0  0  0  0  0  0  0  0  0
  -30.6798   -4.1955   29.5286 C   0  0  0  0  0  0  0  0  0  0  0  0
  -31.4777   -5.1271   29.2416 C   0  0  0  0  0  0  0  0  0  0  0  0
  -32.0092   -5.9165   30.2675 C   0  0  0  0  0  0  0  0  0  0  0  0
  -31.6083   -5.6200   31.5312 C   0  0  0  0  0  0  0  0  0  0  0  0
  -30.7100   -4.5571   31.7168 C   0  0  0  0  0  0  0  0  0  0  0  0
  -28.3638   -3.0386   31.4004 O   0  0  0  0  0  0  0  0  0  0  0  0
  -25.4159    2.0051   29.5367 C   0  0  0  0  0  0  0  0  0  0  0  0
  -24.9057    2.9205   30.3137 Cl  0  0  0  0  0  0  0  0  0  0  0  0
  -24.9630    2.1084   28.0477 C   0  0  0  0  0  0  0  0  0  0  0  0
  -23.6845    2.9298   27.8074 C   0  0  0  0  0  0  0  0  0  0  0  0
  -25.6114    1.4985   27.1015 C   0  0  0  0  0  0  0  0  0  0  0  0
  -23.3061    2.8707   26.5719 O   0  0  0  0  0  0  0  0  0  0  0  0
  3  4  1  0
  2  5  1  0
  6  7  1  0
 11 12  1  0
 13 14  1  0
  1 15  1  0
  7 15  1  0
 14 15  1  0
  5 16  1  0
 14 16  1  0
  5 17  1  0
 17 18  1  0
 17 24  2  0
 10 25  1  0
 25 26  1  0
 25 27  1  0
 27 28  1  0
  4 29  1  0
 27 29  1  0
 28 30  2  0
  7 11  1  0
 12 13  1  0
  4  6  1  0
 18 19  2  0
 19 20  1  0
 20 21  2  0
 21 22  1  0
 22 23  2  0
 23 18  1  0
  1  2  2  0
  2  8  1  0
  8  9  2  0
  9 10  1  0
 10  3  2  0
  3  1  1  0
M  END

$$$$
