No_4001-gen_results/8p0m/2024-11-27-11-27-31/
     RDKit          3D

 21 23  0  0  0  0  0  0  0  0999 V2000
  -28.0162   -0.8135   28.8779 C   0  0  0  0  0  0  0  0  0  0  0  0
  -27.0636   -0.1190   28.6079 C   0  0  0  0  0  0  0  0  0  0  0  0
  -25.7647   -0.3897   29.0360 C   0  0  0  0  0  0  0  0  0  0  0  0
  -25.5296   -1.5302   29.9014 C   0  0  0  0  0  0  0  0  0  0  0  0
  -26.6888   -2.2893   30.1810 C   0  0  0  0  0  0  0  0  0  0  0  0
  -27.8727   -1.9508   29.7373 C   0  0  0  0  0  0  0  0  0  0  0  0
  -28.9304   -2.7298   30.1154 O   0  0  0  0  0  0  0  0  0  0  0  0
  -24.5394    0.4211   28.7421 C   0  0  0  0  0  0  0  0  0  0  0  0
  -24.5259    1.2743   27.7266 C   0  0  0  0  0  0  0  0  0  0  0  0
  -23.3174    1.9856   27.4033 C   0  0  0  0  0  0  0  0  0  0  0  0
  -22.1311    1.7374   28.0503 C   0  0  0  0  0  0  0  0  0  0  0  0
  -23.2983    0.1369   29.3770 C   0  0  0  0  0  0  0  0  0  0  0  0
  -22.1005    0.8185   29.0410 C   0  0  0  0  0  0  0  0  0  0  0  0
  -29.3101   -2.7539   31.4531 C   0  0  0  0  0  0  0  0  0  0  0  0
  -29.7956   -4.0479   31.8129 C   0  0  0  0  0  0  0  0  0  0  0  0
  -29.6784   -4.3187   33.0069 O   0  0  0  0  0  0  0  0  0  0  0  0
  -30.5711   -4.6373   31.0524 O   0  0  0  0  0  0  0  0  0  0  0  0
  -23.3937    2.8957   26.3834 O   0  0  0  0  0  0  0  0  0  0  0  0
  -24.4553    2.5804   25.5308 C   0  0  0  0  0  0  0  0  0  0  0  0
  -25.4536    1.4900   26.8441 N   0  0  0  0  0  0  0  0  0  0  0  0
  -25.4734    2.1452   25.7506 C   0  0  0  0  0  0  0  0  0  0  0  0
  6  7  1  0
  3  8  1  0
  7 14  1  0
 14 15  1  0
 15 16  2  0
 15 17  1  0
 10 18  1  0
 18 19  1  0
  9 20  1  0
 19 21  2  0
 20 21  2  0
  1  2  2  0
  2  3  1  0
  3  4  2  0
  4  5  1  0
  5  6  2  0
  6  1  1  0
  8  9  2  0
  9 10  1  0
 10 11  2  0
 11 13  1  0
 13 12  2  0
 12  8  1  0
M  END

$$$$
