No_422-gen_results/8p0m/2024-11-27-11-27-31/
     RDKit          3D

 15 16  0  0  0  0  0  0  0  0999 V2000
  -28.0162   -0.8135   28.8779 C   0  0  0  0  0  0  0  0  0  0  0  0
  -28.4690   -0.7850   29.8287 C   0  0  0  0  0  0  0  0  0  0  0  0
  -27.0871    0.2903   28.6377 C   0  0  0  0  0  0  0  0  0  0  0  0
  -26.8317    1.2487   29.5869 C   0  0  0  0  0  0  0  0  0  0  0  0
  -28.3914    0.0801   31.0065 C   0  0  0  0  0  0  0  0  0  0  0  0
  -27.4940    1.1521   30.7841 C   0  0  0  0  0  0  0  0  0  0  0  0
  -26.3172    0.3994   27.3653 C   0  0  0  0  0  0  0  0  0  0  0  0
  -26.8990    0.5820   26.4031 O   0  0  0  0  0  0  0  0  0  0  0  0
  -24.9827    0.3252   27.4295 O   0  0  0  0  0  0  0  0  0  0  0  0
  -24.2407    1.3664   26.9544 C   0  0  0  0  0  0  0  0  0  0  0  0
  -23.0031    1.5454   27.7167 C   0  0  0  0  0  0  0  0  0  0  0  0
  -21.9748    2.3789   27.1679 C   0  0  0  0  0  0  0  0  0  0  0  0
  -22.2169    2.6799   25.8166 C   0  0  0  0  0  0  0  0  0  0  0  0
  -23.3170    2.3143   25.0961 C   0  0  0  0  0  0  0  0  0  0  0  0
  -24.2889    1.6450   25.6675 C   0  0  0  0  0  0  0  0  0  0  0  0
  3  7  1  0
  7  8  2  0
  7  9  1  0
  9 10  1  0
  1  2  2  0
  2  5  1  0
  5  6  2  0
  6  4  1  0
  4  3  2  0
  3  1  1  0
 10 11  2  0
 11 12  1  0
 12 13  2  0
 13 14  1  0
 14 15  2  0
 15 10  1  0
M  END

$$$$
