No_44-gen_results/8p0m/2024-11-27-11-27-31/
     RDKit          3D

 24 26  0  0  0  0  0  0  0  0999 V2000
  -28.0162   -0.8135   28.8779 C   0  0  0  0  0  0  0  0  0  0  0  0
  -28.4690   -0.7850   29.8287 C   0  0  0  0  0  0  0  0  0  0  0  0
  -26.5042   -0.7777   28.8766 C   0  0  0  0  0  0  0  0  0  0  0  0
  -25.8103   -0.8531   30.1028 C   0  0  0  0  0  0  0  0  0  0  0  0
  -27.9906   -0.8916   31.2257 C   0  0  0  0  0  0  0  0  0  0  0  0
  -26.6042   -0.8676   31.2652 C   0  0  0  0  0  0  0  0  0  0  0  0
  -24.3894   -0.8049   30.1638 C   0  0  0  0  0  0  0  0  0  0  0  0
  -23.7687   -1.1336   31.0449 N   0  0  0  0  0  0  0  0  0  0  0  0
  -23.6162   -0.3408   28.9983 C   0  0  0  0  0  0  0  0  0  0  0  0
  -22.2174   -0.3267   29.2881 C   0  0  0  0  0  0  0  0  0  0  0  0
  -22.4620   -0.8593   31.2220 C   0  0  0  0  0  0  0  0  0  0  0  0
  -21.3982    0.1368   28.1280 N   0  0  0  0  0  0  0  0  0  0  0  0
  -21.6170   -0.5446   30.4142 C   0  0  0  0  0  0  0  0  0  0  0  0
  -30.0926   -0.8003   29.8450 C   0  0  0  0  0  0  0  0  0  0  0  0
  -30.4969   -0.3393   28.8818 O   0  0  0  0  0  0  0  0  0  0  0  0
  -30.8069   -1.2958   30.8682 N   0  0  0  0  0  0  0  0  0  0  0  0
  -32.2487   -1.2864   30.7905 C   0  0  0  0  0  0  0  0  0  0  0  0
  -32.8101   -2.0775   31.5228 C   0  0  0  0  0  0  0  0  0  0  0  0
  -32.1776   -2.7889   32.6065 C   0  0  0  0  0  0  0  0  0  0  0  0
  -30.7695   -2.8143   32.6597 C   0  0  0  0  0  0  0  0  0  0  0  0
  -30.1053   -2.1804   31.7565 C   0  0  0  0  0  0  0  0  0  0  0  0
  -28.6716   -1.9767   31.9767 C   0  0  0  0  0  0  0  0  0  0  0  0
  -28.1361   -2.4761   32.9736 O   0  0  0  0  0  0  0  0  0  0  0  0
  -28.0774   -2.7179   31.5093 O   0  0  0  0  0  0  0  0  0  0  0  0
  4  7  1  0
 10 12  1  0
  2 14  1  0
 14 15  2  0
 14 16  1  0
 16 17  1  0
 18 19  1  0
 16 21  1  0
 20 21  1  0
 21 22  1  0
 22 23  2  0
 22 24  1  0
 17 18  1  0
 19 20  1  0
  7  8  2  0
  8 11  1  0
 11 13  2  0
 13 10  1  0
 10  9  2  0
  9  7  1  0
  1  2  2  0
  2  5  1  0
  5  6  2  0
  6  4  1  0
  4  3  2  0
  3  1  1  0
M  END

$$$$
