No_4913-gen_results/8p0m/2024-11-27-11-27-31/
     RDKit          3D

 20 21  0  0  0  0  0  0  0  0999 V2000
  -28.0162   -0.8135   28.8779 C   0  0  0  0  0  0  0  0  0  0  0  0
  -27.0636   -0.1190   28.6079 C   0  0  0  0  0  0  0  0  0  0  0  0
  -25.7923   -0.4302   29.0761 C   0  0  0  0  0  0  0  0  0  0  0  0
  -25.2700   -0.0487   30.0123 C   0  0  0  0  0  0  0  0  0  0  0  0
  -27.8851   -1.6684   30.1122 C   0  0  0  0  0  0  0  0  0  0  0  0
  -26.9250   -1.6038   31.1803 C   0  0  0  0  0  0  0  0  0  0  0  0
  -25.6359   -1.0992   31.0559 C   0  0  0  0  0  0  0  0  0  0  0  0
  -26.9888    0.4581   27.2012 C   0  0  0  0  0  0  0  0  0  0  0  0
  -26.8304    1.8440   27.1828 C   0  0  0  0  0  0  0  0  0  0  0  0
  -27.2223   -0.1673   26.0108 C   0  0  0  0  0  0  0  0  0  0  0  0
  -27.2848    0.4586   24.7556 C   0  0  0  0  0  0  0  0  0  0  0  0
  -26.8386    2.5972   25.9790 C   0  0  0  0  0  0  0  0  0  0  0  0
  -27.1109    1.9168   24.7818 C   0  0  0  0  0  0  0  0  0  0  0  0
  -29.0287   -2.6261   30.4399 C   0  0  0  0  0  0  0  0  0  0  0  0
  -28.7630   -3.8488   30.3337 O   0  0  0  0  0  0  0  0  0  0  0  0
  -30.1591   -2.2509   30.5821 O   0  0  0  0  0  0  0  0  0  0  0  0
  -24.7747   -0.9534   28.0885 C   0  0  0  0  0  0  0  0  0  0  0  0
  -23.4197   -0.5025   28.3604 C   0  0  0  0  0  0  0  0  0  0  0  0
  -22.5938   -0.5063   29.1146 C   0  0  0  0  0  0  0  0  0  0  0  0
  -22.7854   -1.1345   30.3958 C   0  0  0  0  0  0  0  0  0  0  0  0
  1  2  1  0
  2  3  1  0
  3  4  2  0
  1  5  1  0
  5  6  2  0
  4  7  1  0
  6  7  1  0
  2  8  1  0
  5 14  1  0
 14 15  2  0
 14 16  1  0
  3 17  1  0
 17 18  1  0
 18 19  2  3
 19 20  1  0
  8  9  2  0
  9 12  1  0
 12 13  2  0
 13 11  1  0
 11 10  2  0
 10  8  1  0
M  END

$$$$
