No_4105-gen_results/8p0m/2024-11-27-11-27-31/
     RDKit          3D

 18 18  0  0  0  0  0  0  0  0999 V2000
  -28.0162   -0.8135   28.8779 C   0  0  0  0  0  0  0  0  0  0  0  0
  -27.0636   -0.1189   28.6079 C   0  0  0  0  0  0  0  0  0  0  0  0
  -26.9287    1.1713   29.0083 C   0  0  0  0  0  0  0  0  0  0  0  0
  -25.7702    2.0341   28.6884 C   0  0  0  0  0  0  0  0  0  0  0  0
  -24.7141    1.4431   27.9188 C   0  0  0  0  0  0  0  0  0  0  0  0
  -24.8590    0.0783   27.5836 C   0  0  0  0  0  0  0  0  0  0  0  0
  -25.9647   -0.6606   27.9164 C   0  0  0  0  0  0  0  0  0  0  0  0
  -28.6995   -0.6441   30.0766 N   0  0  0  0  0  0  0  0  0  0  0  0
  -29.8035   -1.3645   30.5061 C   0  0  0  0  0  0  0  0  0  0  0  0
  -30.3751   -2.1790   29.7448 C   0  0  0  0  0  0  0  0  0  0  0  0
  -30.4244   -3.4049   30.1593 N   0  0  0  0  0  0  0  0  0  0  0  0
  -23.5488    2.1734   27.5582 C   0  0  0  0  0  0  0  0  0  0  0  0
  -22.5018    1.7998   27.3521 O   0  0  0  0  0  0  0  0  0  0  0  0
  -23.8893    3.3733   26.9468 O   0  0  0  0  0  0  0  0  0  0  0  0
  -29.8100   -1.5011   31.8034 O   0  0  0  0  0  0  0  0  0  0  0  0
  -29.3848   -4.1852   30.4402 C   0  0  0  0  0  0  0  0  0  0  0  0
  -28.2981   -4.1916   29.6241 C   0  0  0  0  0  0  0  0  0  0  0  0
  -29.5667   -5.2496   31.5523 C   0  0  0  0  0  0  0  0  0  0  0  0
  1  2  1  0
  1  8  1  0
  8  9  1  0
  9 10  1  0
 10 11  2  3
  5 12  1  0
 12 13  1  0
 12 14  2  0
  9 15  2  0
 11 16  1  0
 16 17  1  0
 16 18  1  0
  2  3  2  0
  3  4  1  0
  4  5  2  0
  5  6  1  0
  6  7  2  0
  7  2  1  0
M  END

$$$$
