No_4688-gen_results/8p0m/2024-11-27-11-27-31/
     RDKit          3D

 22 24  0  0  0  0  0  0  0  0999 V2000
  -28.0162   -0.8135   28.8779 C   0  0  0  0  0  0  0  0  0  0  0  0
  -27.0636   -0.1189   28.6079 C   0  0  0  0  0  0  0  0  0  0  0  0
  -26.8756    1.1325   28.9134 C   0  0  0  0  0  0  0  0  0  0  0  0
  -27.9014    1.8066   29.6436 C   0  0  0  0  0  0  0  0  0  0  0  0
  -29.0458   -0.2316   29.7181 C   0  0  0  0  0  0  0  0  0  0  0  0
  -28.9402    1.0517   30.0597 C   0  0  0  0  0  0  0  0  0  0  0  0
  -30.0593   -1.0632   30.0946 O   0  0  0  0  0  0  0  0  0  0  0  0
  -25.6684    1.9362   28.4484 C   0  0  0  0  0  0  0  0  0  0  0  0
  -24.8300    1.8451   27.8766 C   0  0  0  0  0  0  0  0  0  0  0  0
  -23.6993    2.7703   27.5516 C   0  0  0  0  0  0  0  0  0  0  0  0
  -25.7348    3.4201   29.0156 C   0  0  0  0  0  0  0  0  0  0  0  0
  -24.9708    4.4364   28.4960 C   0  0  0  0  0  0  0  0  0  0  0  0
  -23.8606    4.0492   27.7784 C   0  0  0  0  0  0  0  0  0  0  0  0
  -30.4370   -1.0576   31.3695 C   0  0  0  0  0  0  0  0  0  0  0  0
  -22.4056    2.2577   26.4801 Cl  0  0  0  0  0  0  0  0  0  0  0  0
  -31.1245   -1.9968   31.7855 C   0  0  0  0  0  0  0  0  0  0  0  0
  -31.4627   -3.0561   30.9718 C   0  0  0  0  0  0  0  0  0  0  0  0
  -31.9695   -4.2755   31.4217 C   0  0  0  0  0  0  0  0  0  0  0  0
  -32.1459   -5.4038   30.5376 C   0  0  0  0  0  0  0  0  0  0  0  0
  -31.8171   -5.2641   29.1302 C   0  0  0  0  0  0  0  0  0  0  0  0
  -31.2855   -4.0443   28.7350 C   0  0  0  0  0  0  0  0  0  0  0  0
  -31.0536   -3.0856   29.5821 C   0  0  0  0  0  0  0  0  0  0  0  0
  5  7  1  0
  3  8  1  0
  7 14  1  0
 10 15  1  0
 14 16  2  3
 16 17  1  0
 17 18  2  0
 18 19  1  0
 19 20  2  0
 20 21  1  0
 21 22  2  0
 22 17  1  0
  8  9  2  0
  9 10  1  0
 10 13  2  0
 13 12  1  0
 12 11  2  0
 11  8  1  0
  1  2  2  0
  2  3  1  0
  3  4  2  0
  4  6  1  0
  6  5  2  0
  5  1  1  0
M  END

$$$$
