No_4711-gen_results/8p0m/2024-11-27-11-27-31/
     RDKit          3D

  8  8  0  0  0  0  0  0  0  0999 V2000
  -28.0162   -0.8135   28.8779 C   0  0  0  0  0  0  0  0  0  0  0  0
  -28.4690   -0.7850   29.8287 C   0  0  0  0  0  0  0  0  0  0  0  0
  -27.2166   -0.0832   27.9639 C   0  0  0  0  0  0  0  0  0  0  0  0
  -26.5094   -0.3500   26.9456 C   0  0  0  0  0  0  0  0  0  0  0  0
  -25.8221    0.6874   26.0575 C   0  0  0  0  0  0  0  0  0  0  0  0
  -25.7820    1.9742   26.4992 C   0  0  0  0  0  0  0  0  0  0  0  0
  -26.4621    2.3186   27.6405 C   0  0  0  0  0  0  0  0  0  0  0  0
  -27.1207    1.3573   28.3592 C   0  0  0  0  0  0  0  0  0  0  0  0
  1  2  3  0
  1  3  1  0
  3  4  2  0
  4  5  1  0
  5  6  2  0
  6  7  1  0
  7  8  2  0
  8  3  1  0
M  END

$$$$
