No_4532-gen_results/8p0m/2024-11-27-11-27-31/
     RDKit          3D

 27 29  0  0  0  0  0  0  0  0999 V2000
  -28.0162   -0.8135   28.8779 C   0  0  0  0  0  0  0  0  0  0  0  0
  -27.0636   -0.1189   28.6079 C   0  0  0  0  0  0  0  0  0  0  0  0
  -25.7647   -0.3897   29.0360 C   0  0  0  0  0  0  0  0  0  0  0  0
  -25.5296   -1.5302   29.9014 C   0  0  0  0  0  0  0  0  0  0  0  0
  -26.6888   -2.2893   30.1810 C   0  0  0  0  0  0  0  0  0  0  0  0
  -27.8727   -1.9508   29.7373 C   0  0  0  0  0  0  0  0  0  0  0  0
  -24.5491    0.4100   28.7341 C   0  0  0  0  0  0  0  0  0  0  0  0
  -24.4789    1.1871   27.6843 C   0  0  0  0  0  0  0  0  0  0  0  0
  -23.2830    1.8356   27.3522 C   0  0  0  0  0  0  0  0  0  0  0  0
  -22.1028    1.6619   28.0350 C   0  0  0  0  0  0  0  0  0  0  0  0
  -23.3238    0.1535   29.4730 C   0  0  0  0  0  0  0  0  0  0  0  0
  -22.1169    0.8126   29.1066 C   0  0  0  0  0  0  0  0  0  0  0  0
  -29.2283   -2.9051   30.2029 Cl  0  0  0  0  0  0  0  0  0  0  0  0
  -23.2947    2.7260   26.2951 O   0  0  0  0  0  0  0  0  0  0  0  0
  -27.1719    0.9573   27.7532 O   0  0  0  0  0  0  0  0  0  0  0  0
  -27.6367    2.1069   28.2931 C   0  0  0  0  0  0  0  0  0  0  0  0
  -27.5971    3.1611   27.4746 C   0  0  0  0  0  0  0  0  0  0  0  0
  -27.3702    3.1719   26.2258 C   0  0  0  0  0  0  0  0  0  0  0  0
  -27.6538    4.5074   28.1591 C   0  0  0  0  0  0  0  0  0  0  0  0
  -27.7666    4.6837   29.4947 C   0  0  0  0  0  0  0  0  0  0  0  0
  -27.7893    3.4347   30.2426 C   0  0  0  0  0  0  0  0  0  0  0  0
  -27.6319    2.2085   29.7391 C   0  0  0  0  0  0  0  0  0  0  0  0
  -27.9072    3.6010   31.7933 C   0  0  0  0  0  0  0  0  0  0  0  0
  -28.1232    2.4966   32.7423 P   0  0  0  0  0  0  0  0  0  0  0  0
  -28.7492    1.6042   32.0818 O   0  0  0  0  0  0  0  0  0  0  0  0
  -26.6768    1.9735   33.1437 O   0  0  0  0  0  0  0  0  0  0  0  0
  -28.7826    2.9243   33.9989 O   0  0  0  0  0  0  0  0  0  0  0  0
  3  7  1  0
  6 13  1  0
  9 14  1  0
  2 15  1  0
 15 16  1  0
 17 18  1  0
 21 23  1  0
 23 24  1  0
 24 25  2  0
 24 26  1  0
 24 27  1  0
  7  8  2  0
  8  9  1  0
  9 10  2  0
 10 12  1  0
 12 11  2  0
 11  7  1  0
  1  2  2  0
  2  3  1  0
  3  4  2  0
  4  5  1  0
  5  6  2  0
  6  1  1  0
 16 17  2  0
 17 19  1  0
 19 20  2  0
 20 21  1  0
 21 22  2  0
 22 16  1  0
M  END

$$$$
