No_42-gen_results/8p0m/2024-11-27-11-27-31/
     RDKit          3D

 18 19  0  0  0  0  0  0  0  0999 V2000
  -28.0162   -0.8135   28.8779 C   0  0  0  0  0  0  0  0  0  0  0  0
  -28.4690   -0.7850   29.8287 C   0  0  0  0  0  0  0  0  0  0  0  0
  -27.1356    0.2359   28.5352 C   0  0  0  0  0  0  0  0  0  0  0  0
  -26.8745    1.2825   29.3982 C   0  0  0  0  0  0  0  0  0  0  0  0
  -28.3613    0.1987   30.9244 C   0  0  0  0  0  0  0  0  0  0  0  0
  -27.5277    1.2234   30.6356 C   0  0  0  0  0  0  0  0  0  0  0  0
  -26.3987    0.2949   27.2279 C   0  0  0  0  0  0  0  0  0  0  0  0
  -25.1481    0.1287   27.3793 N   0  0  0  0  0  0  0  0  0  0  0  0
  -27.0062    0.4878   26.0145 C   0  0  0  0  0  0  0  0  0  0  0  0
  -26.1864    0.3326   24.8975 C   0  0  0  0  0  0  0  0  0  0  0  0
  -24.2865    0.1183   26.3096 C   0  0  0  0  0  0  0  0  0  0  0  0
  -24.8622    0.2643   25.0218 C   0  0  0  0  0  0  0  0  0  0  0  0
  -28.4433    0.5381   25.8510 C   0  0  0  0  0  0  0  0  0  0  0  0
  -29.1880    1.1676   26.4819 O   0  0  0  0  0  0  0  0  0  0  0  0
  -28.9281   -0.1983   24.9487 O   0  0  0  0  0  0  0  0  0  0  0  0
  -29.4391   -1.9735   30.3296 C   0  0  0  0  0  0  0  0  0  0  0  0
  -29.2036   -3.0100   30.1768 O   0  0  0  0  0  0  0  0  0  0  0  0
  -30.6136   -1.6552   30.8805 O   0  0  0  0  0  0  0  0  0  0  0  0
  3  7  1  0
  9 13  1  0
 13 14  1  0
 13 15  2  0
  2 16  1  0
 16 17  2  0
 16 18  1  0
  7  8  2  0
  8 11  1  0
 11 12  2  0
 12 10  1  0
 10  9  2  0
  9  7  1  0
  1  2  2  0
  2  5  1  0
  5  6  2  0
  6  4  1  0
  4  3  2  0
  3  1  1  0
M  END

$$$$
