No_4230-gen_results/8p0m/2024-11-27-11-27-31/
     RDKit          3D

 24 26  0  0  0  0  0  0  0  0999 V2000
  -28.0162   -0.8135   28.8779 C   0  0  0  0  0  0  0  0  0  0  0  0
  -28.4690   -0.7850   29.8287 C   0  0  0  0  0  0  0  0  0  0  0  0
  -26.5042   -0.7777   28.8766 C   0  0  0  0  0  0  0  0  0  0  0  0
  -25.8103   -0.8531   30.1028 C   0  0  0  0  0  0  0  0  0  0  0  0
  -27.9906   -0.8916   31.2257 C   0  0  0  0  0  0  0  0  0  0  0  0
  -24.3976   -0.8364   30.1775 C   0  0  0  0  0  0  0  0  0  0  0  0
  -26.5754   -0.8899   31.2661 C   0  0  0  0  0  0  0  0  0  0  0  0
  -23.7708   -0.9176   31.0960 C   0  0  0  0  0  0  0  0  0  0  0  0
  -22.3018   -0.8444   31.2151 C   0  0  0  0  0  0  0  0  0  0  0  0
  -21.6829   -0.5879   30.0577 C   0  0  0  0  0  0  0  0  0  0  0  0
  -23.6382   -0.6309   28.9339 C   0  0  0  0  0  0  0  0  0  0  0  0
  -22.3460   -0.4649   28.8964 C   0  0  0  0  0  0  0  0  0  0  0  0
  -30.0888   -0.7644   29.8519 C   0  0  0  0  0  0  0  0  0  0  0  0
  -30.4907   -0.2893   28.8970 O   0  0  0  0  0  0  0  0  0  0  0  0
  -30.7857   -1.1916   30.8244 O   0  0  0  0  0  0  0  0  0  0  0  0
  -31.8682   -0.4900   28.4161 C   0  0  0  0  0  0  0  0  0  0  0  0
  -32.3468    0.7416   27.8062 C   0  0  0  0  0  0  0  0  0  0  0  0
  -31.6339    1.8617   27.9069 C   0  0  0  0  0  0  0  0  0  0  0  0
  -32.1043    3.0762   27.2342 C   0  0  0  0  0  0  0  0  0  0  0  0
  -33.1845    3.0352   26.4306 C   0  0  0  0  0  0  0  0  0  0  0  0
  -33.8809    1.8318   26.3070 C   0  0  0  0  0  0  0  0  0  0  0  0
  -33.4477    0.7155   26.9577 C   0  0  0  0  0  0  0  0  0  0  0  0
  -31.8052   -1.5318   27.5661 F   0  0  0  0  0  0  0  0  0  0  0  0
  -32.6817   -0.7901   29.4141 F   0  0  0  0  0  0  0  0  0  0  0  0
  4  6  1  0
  2 13  1  0
 13 14  1  0
 13 15  2  0
 14 16  1  0
 16 17  1  0
 16 23  1  0
 16 24  1  0
 17 18  2  0
 18 19  1  0
 19 20  2  0
 20 21  1  0
 21 22  2  0
 22 17  1  0
  6  8  2  0
  8  9  1  0
  9 10  2  0
 10 12  1  0
 12 11  2  0
 11  6  1  0
  1  2  2  0
  2  5  1  0
  5  7  2  0
  7  4  1  0
  4  3  2  0
  3  1  1  0
M  END

$$$$
