No_4896-gen_results/8p0m/2024-11-27-11-27-31/
     RDKit          3D

 17 18  0  0  0  0  0  0  0  0999 V2000
  -28.0162   -0.8135   28.8779 C   0  0  0  0  0  0  0  0  0  0  0  0
  -27.0636   -0.1189   28.6079 C   0  0  0  0  0  0  0  0  0  0  0  0
  -25.7647   -0.3897   29.0360 C   0  0  0  0  0  0  0  0  0  0  0  0
  -25.5296   -1.5302   29.9014 C   0  0  0  0  0  0  0  0  0  0  0  0
  -26.6888   -2.2893   30.1810 C   0  0  0  0  0  0  0  0  0  0  0  0
  -27.8727   -1.9508   29.7373 C   0  0  0  0  0  0  0  0  0  0  0  0
  -28.9304   -2.7298   30.1154 O   0  0  0  0  0  0  0  0  0  0  0  0
  -24.5394    0.4211   28.7421 C   0  0  0  0  0  0  0  0  0  0  0  0
  -24.0907    1.3926   29.5983 C   0  0  0  0  0  0  0  0  0  0  0  0
  -23.6632    2.3596   29.3979 C   0  0  0  0  0  0  0  0  0  0  0  0
  -23.0834    2.6432   28.0008 C   0  0  0  0  0  0  0  0  0  0  0  0
  -23.3857    1.6584   27.0613 C   0  0  0  0  0  0  0  0  0  0  0  0
  -24.1982    0.6178   27.3679 C   0  0  0  0  0  0  0  0  0  0  0  0
  -28.7757   -3.9997   30.6325 C   0  0  0  0  0  0  0  0  0  0  0  0
  -28.7184   -4.9827   29.8438 C   0  0  0  0  0  0  0  0  0  0  0  0
  -29.0714   -4.1365   32.0176 C   0  0  0  0  0  0  0  0  0  0  0  0
  -29.2938   -5.3345   32.4943 O   0  0  0  0  0  0  0  0  0  0  0  0
  6  7  1  0
  3  8  1  0
  7 14  1  0
 14 15  1  0
 14 16  1  0
 16 17  2  0
  1  2  2  0
  2  3  1  0
  3  4  2  0
  4  5  1  0
  5  6  2  0
  6  1  1  0
  8  9  2  0
  9 10  1  0
 10 11  2  0
 11 12  1  0
 12 13  2  0
 13  8  1  0
M  END

$$$$
