No_4681-gen_results/8p0m/2024-11-27-11-27-31/
     RDKit          3D

 13 13  0  0  0  0  0  0  0  0999 V2000
  -28.0162   -0.8135   28.8779 C   0  0  0  0  0  0  0  0  0  0  0  0
  -28.4690   -0.7850   29.8287 C   0  0  0  0  0  0  0  0  0  0  0  0
  -26.5042   -0.7777   28.8766 C   0  0  0  0  0  0  0  0  0  0  0  0
  -25.8103   -0.8531   30.1028 C   0  0  0  0  0  0  0  0  0  0  0  0
  -27.9906   -0.8916   31.2257 C   0  0  0  0  0  0  0  0  0  0  0  0
  -26.6042   -0.8676   31.2652 C   0  0  0  0  0  0  0  0  0  0  0  0
  -24.5534   -0.7870   30.1406 F   0  0  0  0  0  0  0  0  0  0  0  0
  -30.0954   -0.8409   29.8497 C   0  0  0  0  0  0  0  0  0  0  0  0
  -30.5236   -0.4692   28.9258 O   0  0  0  0  0  0  0  0  0  0  0  0
  -30.7799   -1.3301   30.9281 N   0  0  0  0  0  0  0  0  0  0  0  0
  -30.3477   -1.8468   32.1281 C   0  0  0  0  0  0  0  0  0  0  0  0
  -31.0530   -2.2247   33.1073 C   0  0  0  0  0  0  0  0  0  0  0  0
  -28.9318   -1.9725   32.4531 C   0  0  0  0  0  0  0  0  0  0  0  0
  4  7  1  0
  2  8  1  0
  8  9  2  0
  8 10  1  0
 10 11  1  0
 11 12  2  0
 11 13  1  0
  1  2  2  0
  2  5  1  0
  5  6  2  0
  6  4  1  0
  4  3  2  0
  3  1  1  0
M  END

$$$$
