No_4268-gen_results/8p0m/2024-11-27-11-27-31/
     RDKit          3D

 18 20  0  0  0  0  0  0  0  0999 V2000
  -28.0727   -1.2542   28.5316 F   0  0  0  0  0  0  0  0  0  0  0  0
  -27.3591   -0.3792   28.7224 C   0  0  0  0  0  0  0  0  0  0  0  0
  -26.8100    0.1885   27.6513 C   0  0  0  0  0  0  0  0  0  0  0  0
  -25.6015    0.9529   27.6828 C   0  0  0  0  0  0  0  0  0  0  0  0
  -25.0371    1.2332   29.0000 C   0  0  0  0  0  0  0  0  0  0  0  0
  -25.6162    0.5855   30.0870 C   0  0  0  0  0  0  0  0  0  0  0  0
  -26.6061   -0.2296   29.9624 C   0  0  0  0  0  0  0  0  0  0  0  0
  -23.8926    2.1100   29.0763 C   0  0  0  0  0  0  0  0  0  0  0  0
  -23.4042    2.7123   28.1758 O   0  0  0  0  0  0  0  0  0  0  0  0
  -23.5996    2.3758   30.3512 O   0  0  0  0  0  0  0  0  0  0  0  0
  -27.1675   -0.8302   31.0705 O   0  0  0  0  0  0  0  0  0  0  0  0
  -27.0231   -0.2927   32.1912 C   0  0  0  0  0  0  0  0  0  0  0  0
  -28.1526   -0.5342   33.1823 C   0  0  0  0  0  0  0  0  0  0  0  0
  -28.9525    0.4091   33.0943 C   0  0  0  0  0  0  0  0  0  0  0  0
  -28.5060    1.6916   33.0739 C   0  0  0  0  0  0  0  0  0  0  0  0
  -27.1228    1.9593   32.8765 C   0  0  0  0  0  0  0  0  0  0  0  0
  -26.6599    1.2405   32.2272 C   0  0  0  0  0  0  0  0  0  0  0  0
  -25.6917    1.4840   31.1183 C   0  0  0  0  0  0  0  0  0  0  0  0
  1  2  1  0
  5  8  1  0
  8  9  2  0
  8 10  1  0
  7 11  1  0
 11 12  1  0
  6 18  1  0
 17 18  1  0
 12 13  2  0
 13 14  1  0
 14 15  2  0
 15 16  1  0
 16 17  2  0
 17 12  1  0
  2  3  2  0
  3  4  1  0
  4  5  2  0
  5  6  1  0
  6  7  2  0
  7  2  1  0
M  END

$$$$
