No_4542-gen_results/8p0m/2024-11-27-11-27-31/
     RDKit          3D

 14 14  0  0  0  0  0  0  0  0999 V2000
  -28.0162   -0.8135   28.8779 C   0  0  0  0  0  0  0  0  0  0  0  0
  -28.4690   -0.7850   29.8287 C   0  0  0  0  0  0  0  0  0  0  0  0
  -26.5455   -0.8762   28.8500 C   0  0  0  0  0  0  0  0  0  0  0  0
  -25.8041   -1.0324   30.0571 C   0  0  0  0  0  0  0  0  0  0  0  0
  -26.5373   -1.0386   31.2171 C   0  0  0  0  0  0  0  0  0  0  0  0
  -27.8843   -0.9532   31.1862 C   0  0  0  0  0  0  0  0  0  0  0  0
  -24.3655   -1.1134   30.0483 C   0  0  0  0  0  0  0  0  0  0  0  0
  -23.7699   -1.5975   30.7837 N   0  0  0  0  0  0  0  0  0  0  0  0
  -23.7405   -0.8572   28.8963 O   0  0  0  0  0  0  0  0  0  0  0  0
  -22.2629   -1.5587   31.0032 C   0  0  0  0  0  0  0  0  0  0  0  0
  -30.0649   -0.6649   29.9183 C   0  0  0  0  0  0  0  0  0  0  0  0
  -30.5661    0.2986   30.5379 O   0  0  0  0  0  0  0  0  0  0  0  0
  -30.7085   -1.4966   29.2685 O   0  0  0  0  0  0  0  0  0  0  0  0
  -21.7321   -0.8499   29.8763 C   0  0  0  0  0  0  0  0  0  0  0  0
  4  7  1  0
  7  8  1  0
  7  9  2  0
  8 10  1  0
  2 11  1  0
 11 12  2  0
 11 13  1  0
 10 14  1  0
  1  2  2  0
  2  6  1  0
  6  5  2  0
  5  4  1  0
  4  3  2  0
  3  1  1  0
M  END

$$$$
