No_4708-gen_results/8p0m/2024-11-27-11-27-31/
     RDKit          3D

 19 20  0  0  0  0  0  0  0  0999 V2000
  -28.0162   -0.8135   28.8779 C   0  0  0  0  0  0  0  0  0  0  0  0
  -28.4690   -0.7850   29.8287 C   0  0  0  0  0  0  0  0  0  0  0  0
  -26.5042   -0.7777   28.8766 C   0  0  0  0  0  0  0  0  0  0  0  0
  -25.6540   -0.6597   27.7191 C   0  0  0  0  0  0  0  0  0  0  0  0
  -27.9180   -0.9374   31.1824 C   0  0  0  0  0  0  0  0  0  0  0  0
  -26.5423   -0.9399   31.2606 C   0  0  0  0  0  0  0  0  0  0  0  0
  -25.7832   -0.8935   30.1201 C   0  0  0  0  0  0  0  0  0  0  0  0
  -24.3179   -0.2373   27.8436 C   0  0  0  0  0  0  0  0  0  0  0  0
  -23.6632   -0.4277   29.0855 C   0  0  0  0  0  0  0  0  0  0  0  0
  -24.3624   -0.6461   30.1936 C   0  0  0  0  0  0  0  0  0  0  0  0
  -22.1997   -0.1503   29.1273 C   0  0  0  0  0  0  0  0  0  0  0  0
  -21.5846   -1.1399   29.3709 F   0  0  0  0  0  0  0  0  0  0  0  0
  -21.7717    0.3578   27.8892 F   0  0  0  0  0  0  0  0  0  0  0  0
  -21.9282    0.7991   30.0561 F   0  0  0  0  0  0  0  0  0  0  0  0
  -23.4685   -1.4725   29.0679 Cl  0  0  0  0  0  0  0  0  0  0  0  0
  -30.0660   -0.9091   29.8635 C   0  0  0  0  0  0  0  0  0  0  0  0
  -30.7253   -0.3600   30.7870 O   0  0  0  0  0  0  0  0  0  0  0  0
  -30.6185   -1.2595   28.7862 O   0  0  0  0  0  0  0  0  0  0  0  0
  -23.9139   -0.5220   31.4683 O   0  0  0  0  0  0  0  0  0  0  0  0
  3  4  1  0
  8  9  1  0
  7 10  1  0
  9 10  1  0
  9 11  1  0
 11 12  1  0
 11 13  1  0
 11 14  1  0
  9 15  1  0
  2 16  1  0
 16 17  2  0
 16 18  1  0
 10 19  2  0
  4  8  1  0
  1  2  2  0
  2  5  1  0
  5  6  2  0
  6  7  1  0
  7  3  2  0
  3  1  1  0
M  END

$$$$
