No_4787-gen_results/8p0m/2024-11-27-11-27-31/
     RDKit          3D

 35 38  0  0  0  0  0  0  0  0999 V2000
  -28.1229   -1.3353   28.4874 O   0  0  0  0  0  0  0  0  0  0  0  0
  -27.4806   -0.4044   28.7094 C   0  0  0  0  0  0  0  0  0  0  0  0
  -26.3804   -0.0867   27.9394 C   0  0  0  0  0  0  0  0  0  0  0  0
  -27.8993    0.6459   29.6321 N   0  0  0  0  0  0  0  0  0  0  0  0
  -25.3739    0.7466   28.5670 C   0  0  0  0  0  0  0  0  0  0  0  0
  -25.8508    1.8817   29.3165 C   0  0  0  0  0  0  0  0  0  0  0  0
  -26.9703    1.5334   30.1657 C   0  0  0  0  0  0  0  0  0  0  0  0
  -29.0967    0.3419   30.3283 C   0  0  0  0  0  0  0  0  0  0  0  0
  -29.0693   -0.3808   31.4357 C   0  0  0  0  0  0  0  0  0  0  0  0
  -30.2029   -0.7312   32.1479 C   0  0  0  0  0  0  0  0  0  0  0  0
  -31.4335   -0.3236   31.6968 C   0  0  0  0  0  0  0  0  0  0  0  0
  -31.4666    0.4276   30.5224 C   0  0  0  0  0  0  0  0  0  0  0  0
  -30.3217    0.7674   29.8522 C   0  0  0  0  0  0  0  0  0  0  0  0
  -24.3024    1.2420   27.4808 C   0  0  0  0  0  0  0  0  0  0  0  0
  -24.5408    2.2314   26.6214 C   0  0  0  0  0  0  0  0  0  0  0  0
  -25.6266    2.9706   26.5760 C   0  0  0  0  0  0  0  0  0  0  0  0
  -26.7132    2.7345   26.9533 C   0  0  0  0  0  0  0  0  0  0  0  0
  -27.7988    3.7467   26.7424 C   0  0  0  0  0  0  0  0  0  0  0  0
  -24.5770   -0.0872   29.5801 C   0  0  0  0  0  0  0  0  0  0  0  0
  -28.4997    4.1243   27.4412 C   0  0  0  0  0  0  0  0  0  0  0  0
  -29.4475    5.1926   27.2087 C   0  0  0  0  0  0  0  0  0  0  0  0
  -29.5926    5.5403   25.8693 C   0  0  0  0  0  0  0  0  0  0  0  0
  -28.8179    4.9528   24.9711 C   0  0  0  0  0  0  0  0  0  0  0  0
  -27.8699    4.0389   25.3452 C   0  0  0  0  0  0  0  0  0  0  0  0
  -23.1996   -0.1034   29.5083 C   0  0  0  0  0  0  0  0  0  0  0  0
  -23.0078    0.5554   27.6132 C   0  0  0  0  0  0  0  0  0  0  0  0
  -22.4413   -0.0231   28.4505 C   0  0  0  0  0  0  0  0  0  0  0  0
  -26.3247    2.8522   28.3345 F   0  0  0  0  0  0  0  0  0  0  0  0
  -27.2695    1.5108   26.7619 O   0  0  0  0  0  0  0  0  0  0  0  0
  -27.2802    2.4062   27.9280 Cl  0  0  0  0  0  0  0  0  0  0  0  0
  -28.0600    0.6599   26.6852 F   0  0  0  0  0  0  0  0  0  0  0  0
  -24.7603    2.6693   30.0708 C   0  0  0  0  0  0  0  0  0  0  0  0
  -25.9210   -0.9775   27.2015 O   0  0  0  0  0  0  0  0  0  0  0  0
  -23.7796    2.2016   30.3712 O   0  0  0  0  0  0  0  0  0  0  0  0
  -25.0547    4.0441   30.3932 N   0  0  0  0  0  0  0  0  0  0  0  0
  1  2  2  0
  2  3  1  0
  2  4  1  0
  3  5  1  0
  5  6  1  0
  4  7  1  0
  6  7  1  0
  4  8  1  0
  5 14  1  0
 14 15  1  0
 15 16  2  3
 16 17  1  0
 17 18  1  0
  5 19  1  0
 14 26  1  0
 25 27  1  0
 26 27  1  0
  6 28  1  0
 17 29  1  0
 17 30  1  0
 29 31  1  0
  6 32  1  0
  3 33  2  0
 32 34  2  0
 32 35  1  0
 25 19  1  0
 18 20  2  0
 20 21  1  0
 21 22  2  0
 22 23  1  0
 23 24  2  0
 24 18  1  0
  8  9  2  0
  9 10  1  0
 10 11  2  0
 11 12  1  0
 12 13  2  0
 13  8  1  0
M  END

$$$$
