No_430-gen_results/8p0m/2024-11-27-11-27-31/
     RDKit          3D

 18 20  0  0  0  0  0  0  0  0999 V2000
  -28.0162   -0.8135   28.8779 C   0  0  0  0  0  0  0  0  0  0  0  0
  -27.0636   -0.1189   28.6079 C   0  0  0  0  0  0  0  0  0  0  0  0
  -25.7647   -0.3897   29.0360 C   0  0  0  0  0  0  0  0  0  0  0  0
  -25.5296   -1.5302   29.9014 C   0  0  0  0  0  0  0  0  0  0  0  0
  -26.6888   -2.2893   30.1810 C   0  0  0  0  0  0  0  0  0  0  0  0
  -27.8727   -1.9508   29.7373 C   0  0  0  0  0  0  0  0  0  0  0  0
  -24.6590    0.3822   28.7692 O   0  0  0  0  0  0  0  0  0  0  0  0
  -23.4062    0.0733   29.1011 C   0  0  0  0  0  0  0  0  0  0  0  0
  -22.3943    1.0175   28.7490 C   0  0  0  0  0  0  0  0  0  0  0  0
  -21.0876    0.6094   28.5542 C   0  0  0  0  0  0  0  0  0  0  0  0
  -20.7770   -0.7249   29.0207 C   0  0  0  0  0  0  0  0  0  0  0  0
  -21.8082   -1.5865   29.3984 C   0  0  0  0  0  0  0  0  0  0  0  0
  -23.1105   -1.2027   29.3818 C   0  0  0  0  0  0  0  0  0  0  0  0
  -24.1959   -1.9880   29.8363 N   0  0  0  0  0  0  0  0  0  0  0  0
  -29.3320   -2.8749   30.3106 P   0  0  0  0  0  0  0  0  0  0  0  0
  -29.2068   -4.1502   29.8628 O   0  0  0  0  0  0  0  0  0  0  0  0
  -30.5522   -2.1168   30.1737 O   0  0  0  0  0  0  0  0  0  0  0  0
  -28.9607   -2.8492   31.9259 O   0  0  0  0  0  0  0  0  0  0  0  0
  3  7  1  0
  7  8  1  0
  4 14  1  0
 13 14  1  0
  6 15  1  0
 15 16  1  0
 15 17  2  0
 15 18  1  0
  1  2  2  0
  2  3  1  0
  3  4  2  0
  4  5  1  0
  5  6  2  0
  6  1  1  0
  8  9  2  0
  9 10  1  0
 10 11  2  0
 11 12  1  0
 12 13  2  0
 13  8  1  0
M  END

$$$$
