No_4269-gen_results/8p0m/2024-11-27-11-27-31/
     RDKit          3D

 25 25  0  0  0  0  0  0  0  0999 V2000
  -28.0162   -0.8135   28.8779 C   0  0  0  0  0  0  0  0  0  0  0  0
  -27.0636   -0.1190   28.6079 C   0  0  0  0  0  0  0  0  0  0  0  0
  -26.9287    1.1713   29.0083 C   0  0  0  0  0  0  0  0  0  0  0  0
  -25.7702    2.0341   28.6884 C   0  0  0  0  0  0  0  0  0  0  0  0
  -24.7141    1.4431   27.9188 C   0  0  0  0  0  0  0  0  0  0  0  0
  -24.8590    0.0783   27.5836 C   0  0  0  0  0  0  0  0  0  0  0  0
  -25.9647   -0.6606   27.9164 C   0  0  0  0  0  0  0  0  0  0  0  0
  -28.6995   -0.6441   30.0766 N   0  0  0  0  0  0  0  0  0  0  0  0
  -29.8035   -1.3645   30.5061 C   0  0  0  0  0  0  0  0  0  0  0  0
  -30.3751   -2.1790   29.7448 C   0  0  0  0  0  0  0  0  0  0  0  0
  -30.0540   -3.4092   29.8712 F   0  0  0  0  0  0  0  0  0  0  0  0
  -31.7719   -2.2150   29.9408 F   0  0  0  0  0  0  0  0  0  0  0  0
  -29.5090   -1.8160   31.8089 O   0  0  0  0  0  0  0  0  0  0  0  0
  -23.5219    2.1593   27.5731 C   0  0  0  0  0  0  0  0  0  0  0  0
  -22.4590    1.9082   27.6149 O   0  0  0  0  0  0  0  0  0  0  0  0
  -23.8639    3.1278   26.5496 O   0  0  0  0  0  0  0  0  0  0  0  0
  -25.6623    3.4208   29.0982 C   0  0  0  0  0  0  0  0  0  0  0  0
  -25.7979    3.5443   30.4380 C   0  0  0  0  0  0  0  0  0  0  0  0
  -25.9907    4.8826   30.9557 C   0  0  0  0  0  0  0  0  0  0  0  0
  -25.6180    4.9322   32.2373 F   0  0  0  0  0  0  0  0  0  0  0  0
  -25.1061    5.7777   30.3930 F   0  0  0  0  0  0  0  0  0  0  0  0
  -27.2145    5.3067   30.7608 F   0  0  0  0  0  0  0  0  0  0  0  0
  -30.3212   -1.9141   28.4468 F   0  0  0  0  0  0  0  0  0  0  0  0
  -24.5499    3.0776   31.0642 F   0  0  0  0  0  0  0  0  0  0  0  0
  -26.7211    2.7948   31.0041 F   0  0  0  0  0  0  0  0  0  0  0  0
  1  2  1  0
  1  8  1  0
  8  9  1  0
  9 10  1  0
 10 11  1  0
 10 12  1  0
  9 13  2  0
  5 14  1  0
 14 15  2  0
 14 16  1  0
  4 17  1  0
 17 18  1  0
 18 19  1  0
 19 20  1  0
 19 21  1  0
 19 22  1  0
 10 23  1  0
 18 24  1  0
 18 25  1  0
  2  3  2  0
  3  4  1  0
  4  5  2  0
  5  6  1  0
  6  7  2  0
  7  2  1  0
M  END

$$$$
