No_4190-gen_results/8p0m/2024-11-27-11-27-31/
     RDKit          3D

 35 39  0  0  0  0  0  0  0  0999 V2000
  -28.0162   -0.8135   28.8779 C   0  0  0  0  0  0  0  0  0  0  0  0
  -27.0636   -0.1190   28.6079 C   0  0  0  0  0  0  0  0  0  0  0  0
  -25.7923   -0.4302   29.0761 C   0  0  0  0  0  0  0  0  0  0  0  0
  -24.5456    0.3494   28.8225 C   0  0  0  0  0  0  0  0  0  0  0  0
  -23.2409    0.0217   29.3323 C   0  0  0  0  0  0  0  0  0  0  0  0
  -27.8820   -1.8995   29.8633 C   0  0  0  0  0  0  0  0  0  0  0  0
  -26.6706   -2.3272   30.3212 C   0  0  0  0  0  0  0  0  0  0  0  0
  -25.5433   -1.5852   29.9316 C   0  0  0  0  0  0  0  0  0  0  0  0
  -22.1884    0.8224   28.9928 C   0  0  0  0  0  0  0  0  0  0  0  0
  -22.1616    1.7773   28.0238 C   0  0  0  0  0  0  0  0  0  0  0  0
  -24.5484    1.3977   27.8309 C   0  0  0  0  0  0  0  0  0  0  0  0
  -23.3870    2.0761   27.4709 C   0  0  0  0  0  0  0  0  0  0  0  0
  -29.0623   -2.7219   30.2963 C   0  0  0  0  0  0  0  0  0  0  0  0
  -29.3084   -2.7935   31.5456 O   0  0  0  0  0  0  0  0  0  0  0  0
  -29.7344   -3.3945   29.4990 O   0  0  0  0  0  0  0  0  0  0  0  0
  -23.5117    3.0250   26.5362 F   0  0  0  0  0  0  0  0  0  0  0  0
  -29.2514   -0.5574   28.4760 O   0  0  0  0  0  0  0  0  0  0  0  0
  -29.6451    0.7506   28.3637 C   0  0  0  0  0  0  0  0  0  0  0  0
  -29.7886    1.1537   27.0040 C   0  0  0  0  0  0  0  0  0  0  0  0
  -30.6460    1.6284   26.6783 O   0  0  0  0  0  0  0  0  0  0  0  0
  -28.7910    0.9127   26.2124 O   0  0  0  0  0  0  0  0  0  0  0  0
  -30.1411    1.4619   29.5069 C   0  0  0  0  0  0  0  0  0  0  0  0
  -30.3425    0.8025   30.6760 C   0  0  0  0  0  0  0  0  0  0  0  0
  -30.7403    1.5469   31.8119 C   0  0  0  0  0  0  0  0  0  0  0  0
  -30.7974    0.9658   33.0716 C   0  0  0  0  0  0  0  0  0  0  0  0
  -30.5367   -0.4390   33.1539 C   0  0  0  0  0  0  0  0  0  0  0  0
  -30.3795   -1.1666   32.0815 C   0  0  0  0  0  0  0  0  0  0  0  0
  -30.1985   -0.4178   30.8380 C   0  0  0  0  0  0  0  0  0  0  0  0
  -31.3827   -1.5015   32.5825 C   0  0  0  0  0  0  0  0  0  0  0  0
  -32.5934   -1.2370   32.5395 C   0  0  0  0  0  0  0  0  0  0  0  0
  -29.1585   -3.5672   32.4877 C   0  0  0  0  0  0  0  0  0  0  0  0
  -33.7093   -2.2286   32.4883 C   0  0  0  0  0  0  0  0  0  0  0  0
  -31.3652   -3.0224   32.9387 C   0  0  0  0  0  0  0  0  0  0  0  0
  -30.3717   -3.5068   33.1769 C   0  0  0  0  0  0  0  0  0  0  0  0
  -32.7792   -3.3696   33.0032 C   0  0  0  0  0  0  0  0  0  0  0  0
  3  4  1  0
  6 13  1  0
 13 14  1  0
 13 15  2  0
 12 16  1  0
  1 17  1  0
 17 18  1  0
 18 19  1  0
 19 20  2  0
 19 21  1  0
 18 22  1  0
 27 29  1  0
 29 30  1  0
 14 31  1  0
 30 32  2  0
 29 33  1  0
 31 34  2  3
 33 34  1  0
 32 35  1  0
 33 35  1  0
 22 23  1  0
 23 24  1  0
 24 25  2  0
 25 26  1  0
 26 27  2  0
 27 28  1  0
 28 23  2  0
  1  2  2  0
  2  3  1  0
  3  8  2  0
  8  7  1  0
  7  6  2  0
  6  1  1  0
  4  5  2  0
  5  9  1  0
  9 10  2  0
 10 12  1  0
 12 11  2  0
 11  4  1  0
M  END

$$$$
