No_432-gen_results/8p0m/2024-11-27-11-27-31/
     RDKit          3D

 30 32  0  0  0  0  0  0  0  0999 V2000
  -28.0727   -1.2542   28.5316 F   0  0  0  0  0  0  0  0  0  0  0  0
  -27.3591   -0.3792   28.7224 C   0  0  0  0  0  0  0  0  0  0  0  0
  -26.8100    0.1885   27.6513 C   0  0  0  0  0  0  0  0  0  0  0  0
  -25.6015    0.9529   27.6828 C   0  0  0  0  0  0  0  0  0  0  0  0
  -25.0371    1.2332   29.0000 C   0  0  0  0  0  0  0  0  0  0  0  0
  -25.6162    0.5855   30.0870 C   0  0  0  0  0  0  0  0  0  0  0  0
  -26.6061   -0.2296   29.9624 C   0  0  0  0  0  0  0  0  0  0  0  0
  -23.7151    2.2724   29.1059 Cl  0  0  0  0  0  0  0  0  0  0  0  0
  -27.2652    0.0382   26.3899 O   0  0  0  0  0  0  0  0  0  0  0  0
  -27.5728    1.1825   25.6731 C   0  0  0  0  0  0  0  0  0  0  0  0
  -28.9225    1.5775   25.8636 C   0  0  0  0  0  0  0  0  0  0  0  0
  -29.6941    1.0131   26.6055 C   0  0  0  0  0  0  0  0  0  0  0  0
  -31.0558    1.4866   26.8066 C   0  0  0  0  0  0  0  0  0  0  0  0
  -31.4213    2.6089   26.0583 C   0  0  0  0  0  0  0  0  0  0  0  0
  -29.4113    2.6715   25.1183 C   0  0  0  0  0  0  0  0  0  0  0  0
  -30.5850    3.2178   25.1959 C   0  0  0  0  0  0  0  0  0  0  0  0
  -32.0139    0.8876   27.7757 C   0  0  0  0  0  0  0  0  0  0  0  0
  -32.0397    1.0422   28.9519 O   0  0  0  0  0  0  0  0  0  0  0  0
  -33.0182    0.2993   27.1522 O   0  0  0  0  0  0  0  0  0  0  0  0
  -26.7625    1.5858   24.8917 O   0  0  0  0  0  0  0  0  0  0  0  0
  -27.3099   -0.9333   31.3901 Cl  0  0  0  0  0  0  0  0  0  0  0  0
  -33.4076   -0.9196   27.7096 C   0  0  0  0  0  0  0  0  0  0  0  0
  -33.5227   -1.8269   26.9728 C   0  0  0  0  0  0  0  0  0  0  0  0
  -32.8268   -2.6450   26.7629 C   0  0  0  0  0  0  0  0  0  0  0  0
  -31.7917   -3.0281   27.8304 C   0  0  0  0  0  0  0  0  0  0  0  0
  -31.7952   -2.2041   28.9479 C   0  0  0  0  0  0  0  0  0  0  0  0
  -32.4711   -0.9733   28.8380 C   0  0  0  0  0  0  0  0  0  0  0  0
  -32.0355    0.0609   29.6462 C   0  0  0  0  0  0  0  0  0  0  0  0
  -31.6242   -0.0190   31.0511 C   0  0  0  0  0  0  0  0  0  0  0  0
  -32.7498   -0.0214   30.3508 Br  0  0  0  0  0  0  0  0  0  0  0  0
  1  2  1  0
  5  8  1  0
  3  9  1  0
  9 10  1  0
 10 11  1  0
 13 17  1  0
 17 18  2  0
 17 19  1  0
 10 20  2  0
  7 21  1  0
 19 22  1  0
 27 28  1  0
 28 29  1  0
 28 30  1  0
  2  3  2  0
  3  4  1  0
  4  5  2  0
  5  6  1  0
  6  7  2  0
  7  2  1  0
 22 23  2  0
 23 24  1  0
 24 25  2  0
 25 26  1  0
 26 27  2  0
 27 22  1  0
 11 12  2  0
 12 13  1  0
 13 14  2  0
 14 16  1  0
 16 15  2  0
 15 11  1  0
M  END

$$$$
