No_476-gen_results/8p0m/2024-11-27-11-27-31/
     RDKit          3D

 24 26  0  0  0  0  0  0  0  0999 V2000
  -28.0162   -0.8135   28.8779 C   0  0  0  0  0  0  0  0  0  0  0  0
  -28.4690   -0.7850   29.8287 C   0  0  0  0  0  0  0  0  0  0  0  0
  -27.1356    0.2359   28.5352 C   0  0  0  0  0  0  0  0  0  0  0  0
  -26.8745    1.2825   29.3982 C   0  0  0  0  0  0  0  0  0  0  0  0
  -28.3613    0.1987   30.9244 C   0  0  0  0  0  0  0  0  0  0  0  0
  -27.5277    1.2234   30.6356 C   0  0  0  0  0  0  0  0  0  0  0  0
  -26.3879    0.2914   27.2334 C   0  0  0  0  0  0  0  0  0  0  0  0
  -25.7787   -0.5228   27.0340 F   0  0  0  0  0  0  0  0  0  0  0  0
  -25.6034    1.4597   27.1041 F   0  0  0  0  0  0  0  0  0  0  0  0
  -27.3759    0.5234   26.2013 F   0  0  0  0  0  0  0  0  0  0  0  0
  -29.3958   -2.0216   30.3203 C   0  0  0  0  0  0  0  0  0  0  0  0
  -29.7706   -2.0127   31.5080 O   0  0  0  0  0  0  0  0  0  0  0  0
  -29.5199   -2.9933   29.6021 O   0  0  0  0  0  0  0  0  0  0  0  0
  -27.2777    2.3337   31.6061 C   0  0  0  0  0  0  0  0  0  0  0  0
  -27.0797    3.5281   31.3726 C   0  0  0  0  0  0  0  0  0  0  0  0
  -27.1463    4.0467   29.9995 C   0  0  0  0  0  0  0  0  0  0  0  0
  -26.6383    5.3541   29.7499 C   0  0  0  0  0  0  0  0  0  0  0  0
  -26.0564    6.0538   30.7481 C   0  0  0  0  0  0  0  0  0  0  0  0
  -25.9050    5.5974   32.0519 C   0  0  0  0  0  0  0  0  0  0  0  0
  -26.3698    4.3004   32.3245 C   0  0  0  0  0  0  0  0  0  0  0  0
  -27.5620    1.9137   33.0287 C   0  0  0  0  0  0  0  0  0  0  0  0
  -28.0476    1.0092   33.3083 O   0  0  0  0  0  0  0  0  0  0  0  0
  -27.1444    2.9811   34.0272 C   0  0  0  0  0  0  0  0  0  0  0  0
  -26.4332    4.0019   33.7374 C   0  0  0  0  0  0  0  0  0  0  0  0
  3  7  1  0
  7  8  1  0
  7  9  1  0
  7 10  1  0
  2 11  1  0
 11 12  2  0
 11 13  1  0
  6 14  1  0
 14 21  1  0
 21 22  2  0
 21 23  1  0
 20 24  1  0
 14 15  1  0
 24 23  1  0
 15 16  2  0
 16 17  1  0
 17 18  2  0
 18 19  1  0
 19 20  2  0
 20 15  1  0
  1  2  2  0
  2  5  1  0
  5  6  2  0
  6  4  1  0
  4  3  2  0
  3  1  1  0
M  END

$$$$
