No_4315-gen_results/8p0m/2024-11-27-11-27-31/
     RDKit          3D

 35 38  0  0  0  0  0  0  0  0999 V2000
  -28.0162   -0.8135   28.8779 C   0  0  0  0  0  0  0  0  0  0  0  0
  -27.0636   -0.1189   28.6079 C   0  0  0  0  0  0  0  0  0  0  0  0
  -26.8756    1.1325   28.9134 C   0  0  0  0  0  0  0  0  0  0  0  0
  -27.9014    1.8066   29.6436 C   0  0  0  0  0  0  0  0  0  0  0  0
  -29.0458   -0.2316   29.7181 C   0  0  0  0  0  0  0  0  0  0  0  0
  -28.9402    1.0517   30.0597 C   0  0  0  0  0  0  0  0  0  0  0  0
  -26.0208   -0.6774   27.8774 F   0  0  0  0  0  0  0  0  0  0  0  0
  -30.0213    1.6852   30.8724 C   0  0  0  0  0  0  0  0  0  0  0  0
  -29.6464    2.6297   31.6630 C   0  0  0  0  0  0  0  0  0  0  0  0
  -28.4776    3.4772   31.2207 C   0  0  0  0  0  0  0  0  0  0  0  0
  -27.4974    2.9890   30.4086 C   0  0  0  0  0  0  0  0  0  0  0  0
  -26.3048    3.7461   30.1046 C   0  0  0  0  0  0  0  0  0  0  0  0
  -26.0610    4.3058   28.8681 C   0  0  0  0  0  0  0  0  0  0  0  0
  -25.9409    4.7926   31.1678 C   0  0  0  0  0  0  0  0  0  0  0  0
  -25.2922    3.6255   27.9182 C   0  0  0  0  0  0  0  0  0  0  0  0
  -24.9858    4.2109   26.6441 C   0  0  0  0  0  0  0  0  0  0  0  0
  -26.6305    5.5183   28.5056 C   0  0  0  0  0  0  0  0  0  0  0  0
  -26.3272    6.1442   27.2688 C   0  0  0  0  0  0  0  0  0  0  0  0
  -24.1452    3.5460   25.7324 C   0  0  0  0  0  0  0  0  0  0  0  0
  -25.5181    5.5424   26.4090 C   0  0  0  0  0  0  0  0  0  0  0  0
  -26.1910    5.8837   31.3038 N   0  0  0  0  0  0  0  0  0  0  0  0
  -25.8542    6.6963   32.2522 C   0  0  0  0  0  0  0  0  0  0  0  0
  -24.9498    4.1798   32.1823 C   0  0  0  0  0  0  0  0  0  0  0  0
  -24.6011    4.9734   33.2475 N   0  0  0  0  0  0  0  0  0  0  0  0
  -24.9686    6.2748   33.2304 C   0  0  0  0  0  0  0  0  0  0  0  0
  -24.5701    2.9165   32.1709 N   0  0  0  0  0  0  0  0  0  0  0  0
  -26.2931    8.1560   32.2343 C   0  0  0  0  0  0  0  0  0  0  0  0
  -27.0295    8.5391   31.5346 N   0  0  0  0  0  0  0  0  0  0  0  0
  -27.3937    9.7911   31.3531 C   0  0  0  0  0  0  0  0  0  0  0  0
  -25.7173    8.8948   33.1597 O   0  0  0  0  0  0  0  0  0  0  0  0
  -23.5686    2.3130   25.9405 C   0  0  0  0  0  0  0  0  0  0  0  0
  -22.4779    1.9548   26.4730 C   0  0  0  0  0  0  0  0  0  0  0  0
  -22.2658    1.2901   27.8076 C   0  0  0  0  0  0  0  0  0  0  0  0
  -23.3360    1.0259   28.6792 C   0  0  0  0  0  0  0  0  0  0  0  0
  -23.0547    0.3028   29.8456 C   0  0  0  0  0  0  0  0  0  0  0  0
  2  7  1  0
 11 12  1  0
 12 13  1  0
 12 14  1  0
 16 19  1  0
 23 26  1  0
 22 27  1  0
 27 28  1  0
 28 29  1  0
 27 30  2  0
 19 31  1  0
 31 32  2  3
 32 33  1  0
 33 34  2  3
 34 35  1  0
  6  8  1  0
  8  9  2  0
  9 10  1  0
 10 11  2  0
 11  4  1  0
  1  2  2  0
  2  3  1  0
  3  4  2  0
  4  6  1  0
  6  5  2  0
  5  1  1  0
 13 15  2  0
 15 16  1  0
 16 20  2  0
 20 18  1  0
 18 17  2  0
 17 13  1  0
 14 21  2  0
 21 22  1  0
 22 25  2  0
 25 24  1  0
 24 23  2  0
 23 14  1  0
M  END

$$$$
