No_4000-gen_results/8p0m/2024-11-27-11-27-31/
     RDKit          3D

 15 16  0  0  0  0  0  0  0  0999 V2000
  -28.0162   -0.8135   28.8779 C   0  0  0  0  0  0  0  0  0  0  0  0
  -27.0636   -0.1189   28.6079 C   0  0  0  0  0  0  0  0  0  0  0  0
  -25.8586   -0.4059   28.9035 O   0  0  0  0  0  0  0  0  0  0  0  0
  -27.1835    1.0379   27.7428 N   0  0  0  0  0  0  0  0  0  0  0  0
  -29.3106   -0.0975   29.0449 C   0  0  0  0  0  0  0  0  0  0  0  0
  -28.4364    1.5744   27.5635 C   0  0  0  0  0  0  0  0  0  0  0  0
  -29.5303    0.8921   28.1014 C   0  0  0  0  0  0  0  0  0  0  0  0
  -30.8429    1.4848   27.9310 C   0  0  0  0  0  0  0  0  0  0  0  0
  -31.6253    1.6215   28.7871 N   0  0  0  0  0  0  0  0  0  0  0  0
  -31.5576    1.5702   29.9193 C   0  0  0  0  0  0  0  0  0  0  0  0
  -31.9813    1.9972   30.8484 C   0  0  0  0  0  0  0  0  0  0  0  0
  -32.9796    3.0846   30.6672 C   0  0  0  0  0  0  0  0  0  0  0  0
  -33.4031    3.2228   29.3689 C   0  0  0  0  0  0  0  0  0  0  0  0
  -33.0932    1.8561   28.2944 C   0  0  0  0  0  0  0  0  0  0  0  0
  -30.5821    2.7156   27.0586 C   0  0  0  0  0  0  0  0  0  0  0  0
  1  2  1  0
  2  3  2  0
  2  4  1  0
  1  5  1  0
  5  7  1  0
  6  7  1  0
  7  8  1  0
  8  9  1  0
  9 10  1  0
 11 12  1  0
  9 14  1  0
 13 14  1  0
  8 15  1  0
 10 11  1  0
 12 13  1  0
  6  4  1  0
M  END

$$$$
