No_4537-gen_results/8p0m/2024-11-27-11-27-31/
     RDKit          3D

 35 37  0  0  0  0  0  0  0  0999 V2000
  -28.0162   -0.8135   28.8779 C   0  0  0  0  0  0  0  0  0  0  0  0
  -27.0636   -0.1189   28.6079 C   0  0  0  0  0  0  0  0  0  0  0  0
  -26.9716    0.7139   27.5060 C   0  0  0  0  0  0  0  0  0  0  0  0
  -28.1053    0.7744   26.6421 C   0  0  0  0  0  0  0  0  0  0  0  0
  -29.2008    0.1044   27.0527 C   0  0  0  0  0  0  0  0  0  0  0  0
  -29.2096   -0.6029   28.1853 C   0  0  0  0  0  0  0  0  0  0  0  0
  -30.5651    0.2430   26.0493 Cl  0  0  0  0  0  0  0  0  0  0  0  0
  -25.7033   -0.2337   29.4132 C   0  0  0  0  0  0  0  0  0  0  0  0
  -24.6031   -0.3616   28.8631 N   0  0  0  0  0  0  0  0  0  0  0  0
  -23.4257   -0.6431   29.4321 C   0  0  0  0  0  0  0  0  0  0  0  0
  -22.5389    0.3642   29.8528 C   0  0  0  0  0  0  0  0  0  0  0  0
  -22.8396   -1.7956   29.0465 O   0  0  0  0  0  0  0  0  0  0  0  0
  -25.7036    0.0561   30.6298 O   0  0  0  0  0  0  0  0  0  0  0  0
  -28.2711   -1.5900   29.9886 O   0  0  0  0  0  0  0  0  0  0  0  0
  -29.0630   -1.2947   31.0468 C   0  0  0  0  0  0  0  0  0  0  0  0
  -30.4037   -1.2923   30.8083 C   0  0  0  0  0  0  0  0  0  0  0  0
  -31.0230   -0.5060   31.3637 O   0  0  0  0  0  0  0  0  0  0  0  0
  -30.8872   -2.1490   30.0113 O   0  0  0  0  0  0  0  0  0  0  0  0
  -28.0372    1.5467   25.5752 O   0  0  0  0  0  0  0  0  0  0  0  0
  -28.3583    2.6671   25.4942 C   0  0  0  0  0  0  0  0  0  0  0  0
  -29.4633    3.0726   24.5887 C   0  0  0  0  0  0  0  0  0  0  0  0
  -30.4934    3.4433   25.0376 C   0  0  0  0  0  0  0  0  0  0  0  0
  -31.6900    3.6084   24.2391 C   0  0  0  0  0  0  0  0  0  0  0  0
  -32.8878    4.1737   24.6551 C   0  0  0  0  0  0  0  0  0  0  0  0
  -34.0125    4.3288   23.8667 C   0  0  0  0  0  0  0  0  0  0  0  0
  -33.8887    3.8235   22.5400 C   0  0  0  0  0  0  0  0  0  0  0  0
  -32.7324    3.2324   22.0680 C   0  0  0  0  0  0  0  0  0  0  0  0
  -31.6493    3.1785   22.8708 C   0  0  0  0  0  0  0  0  0  0  0  0
  -30.6944    4.0571   26.3772 C   0  0  0  0  0  0  0  0  0  0  0  0
  -31.4009    3.2871   27.2894 C   0  0  0  0  0  0  0  0  0  0  0  0
  -31.5054    3.7445   28.6199 C   0  0  0  0  0  0  0  0  0  0  0  0
  -32.1400    2.9296   29.6226 C   0  0  0  0  0  0  0  0  0  0  0  0
  -32.7048    1.7067   29.1309 C   0  0  0  0  0  0  0  0  0  0  0  0
  -32.7488    1.3749   27.8408 C   0  0  0  0  0  0  0  0  0  0  0  0
  -32.0426    2.1493   26.9265 C   0  0  0  0  0  0  0  0  0  0  0  0
  5  7  1  0
  2  8  1  0
  8  9  1  0
  9 10  1  0
 10 11  1  0
 10 12  2  0
  8 13  2  0
  1 14  1  0
 14 15  1  0
 15 16  1  0
 16 17  2  0
 16 18  1  0
  4 19  1  0
 19 20  1  0
 20 21  2  3
 21 22  1  0
 22 29  1  0
 22 23  1  0
 29 30  1  0
  1  2  2  0
  2  3  1  0
  3  4  2  0
  4  5  1  0
  5  6  2  0
  6  1  1  0
 23 24  2  0
 24 25  1  0
 25 26  2  0
 26 27  1  0
 27 28  2  0
 28 23  1  0
 30 31  2  0
 31 32  1  0
 32 33  2  0
 33 34  1  0
 34 35  2  0
 35 30  1  0
M  END

$$$$
