No_4862-gen_results/8p0m/2024-11-27-11-27-31/
     RDKit          3D

 16 18  0  0  0  0  0  0  0  0999 V2000
  -28.1229   -1.3353   28.4874 O   0  0  0  0  0  0  0  0  0  0  0  0
  -28.5208   -0.4363   29.0779 C   0  0  0  0  0  0  0  0  0  0  0  0
  -29.6977    0.0507   28.9764 C   0  0  0  0  0  0  0  0  0  0  0  0
  -27.7059   -0.0219   30.1625 N   0  0  0  0  0  0  0  0  0  0  0  0
  -26.3949   -0.3536   30.3653 C   0  0  0  0  0  0  0  0  0  0  0  0
  -29.8153    1.4537   28.6188 C   0  0  0  0  0  0  0  0  0  0  0  0
  -30.1942    2.0197   27.7888 C   0  0  0  0  0  0  0  0  0  0  0  0
  -30.2108    3.5276   27.5348 C   0  0  0  0  0  0  0  0  0  0  0  0
  -29.5781    4.3096   28.4999 C   0  0  0  0  0  0  0  0  0  0  0  0
  -29.0234    3.6123   29.5710 C   0  0  0  0  0  0  0  0  0  0  0  0
  -29.0906    2.3317   29.7001 C   0  0  0  0  0  0  0  0  0  0  0  0
  -25.7957    0.0580   31.3592 C   0  0  0  0  0  0  0  0  0  0  0  0
  -26.3101    0.9542   32.3235 C   0  0  0  0  0  0  0  0  0  0  0  0
  -27.6184    1.3794   32.0564 C   0  0  0  0  0  0  0  0  0  0  0  0
  -28.2631    0.9299   31.0326 C   0  0  0  0  0  0  0  0  0  0  0  0
  -29.5255    1.2759   30.7065 O   0  0  0  0  0  0  0  0  0  0  0  0
  1  2  2  0
  2  3  1  0
  2  4  1  0
  4  5  1  0
  3  6  1  0
 12 13  1  0
  4 15  1  0
 14 15  1  0
 11 16  1  0
 15 16  1  0
  5 12  1  0
 13 14  1  0
  6  7  2  0
  7  8  1  0
  8  9  2  0
  9 10  1  0
 10 11  2  0
 11  6  1  0
M  END

$$$$
