No_4346-gen_results/8p0m/2024-11-27-11-27-31/
     RDKit          3D

 15 16  0  0  0  0  0  0  0  0999 V2000
  -28.0162   -0.8135   28.8779 C   0  0  0  0  0  0  0  0  0  0  0  0
  -27.0636   -0.1189   28.6079 C   0  0  0  0  0  0  0  0  0  0  0  0
  -27.0010    0.6913   27.4910 C   0  0  0  0  0  0  0  0  0  0  0  0
  -25.8548    1.4825   27.0830 C   0  0  0  0  0  0  0  0  0  0  0  0
  -25.8227    2.3296   25.9941 C   0  0  0  0  0  0  0  0  0  0  0  0
  -27.9874   -1.6326   30.1036 C   0  0  0  0  0  0  0  0  0  0  0  0
  -29.0494   -2.5010   30.5090 C   0  0  0  0  0  0  0  0  0  0  0  0
  -26.7105   -1.6674   30.8273 C   0  0  0  0  0  0  0  0  0  0  0  0
  -25.6230   -1.0176   30.4149 C   0  0  0  0  0  0  0  0  0  0  0  0
  -25.7120   -0.1886   29.2782 C   0  0  0  0  0  0  0  0  0  0  0  0
  -26.9954    2.6702   25.4341 C   0  0  0  0  0  0  0  0  0  0  0  0
  -28.1281    1.9079   25.6035 C   0  0  0  0  0  0  0  0  0  0  0  0
  -28.1599    0.9881   26.6778 C   0  0  0  0  0  0  0  0  0  0  0  0
  -28.9332   -3.7261   30.5943 O   0  0  0  0  0  0  0  0  0  0  0  0
  -30.0789   -1.9915   31.0266 O   0  0  0  0  0  0  0  0  0  0  0  0
  6  7  1  0
  7 14  2  0
  7 15  1  0
  3  2  1  0
  3  4  2  0
  4  5  1  0
  5 11  2  0
 11 12  1  0
 12 13  2  0
 13  3  1  0
  1  2  2  0
  2 10  1  0
 10  9  2  0
  9  8  1  0
  8  6  2  0
  6  1  1  0
M  END

$$$$
