No_4631-gen_results/8p0m/2024-11-27-11-27-31/
     RDKit          3D

 21 23  0  0  0  0  0  0  0  0999 V2000
  -28.0162   -0.8135   28.8779 C   0  0  0  0  0  0  0  0  0  0  0  0
  -28.4690   -0.7850   29.8287 C   0  0  0  0  0  0  0  0  0  0  0  0
  -27.0871    0.2903   28.6377 C   0  0  0  0  0  0  0  0  0  0  0  0
  -26.8317    1.2487   29.5869 C   0  0  0  0  0  0  0  0  0  0  0  0
  -28.3914    0.0801   31.0065 C   0  0  0  0  0  0  0  0  0  0  0  0
  -27.4940    1.1521   30.7841 C   0  0  0  0  0  0  0  0  0  0  0  0
  -26.3172    0.3994   27.3653 C   0  0  0  0  0  0  0  0  0  0  0  0
  -26.8797    0.7923   26.3846 N   0  0  0  0  0  0  0  0  0  0  0  0
  -25.0633    0.1092   27.3656 O   0  0  0  0  0  0  0  0  0  0  0  0
  -26.4814    0.6742   25.1883 C   0  0  0  0  0  0  0  0  0  0  0  0
  -28.3583    0.7828   26.3551 C   0  0  0  0  0  0  0  0  0  0  0  0
  -28.8228    1.6424   25.7589 C   0  0  0  0  0  0  0  0  0  0  0  0
  -30.2988    1.8926   25.8734 C   0  0  0  0  0  0  0  0  0  0  0  0
  -31.0021    1.0001   26.6381 C   0  0  0  0  0  0  0  0  0  0  0  0
  -30.3903   -0.0451   27.2684 C   0  0  0  0  0  0  0  0  0  0  0  0
  -29.0577   -0.0426   27.2523 C   0  0  0  0  0  0  0  0  0  0  0  0
  -28.4876   -0.9256   28.0660 O   0  0  0  0  0  0  0  0  0  0  0  0
  -25.8518    2.3266   29.4164 C   0  0  0  0  0  0  0  0  0  0  0  0
  -26.0003    2.9125   28.3025 F   0  0  0  0  0  0  0  0  0  0  0  0
  -26.0347    3.2895   30.3485 F   0  0  0  0  0  0  0  0  0  0  0  0
  -24.6347    1.8282   29.5602 F   0  0  0  0  0  0  0  0  0  0  0  0
  3  7  1  0
  7  8  1  0
  7  9  2  0
  8 10  1  0
  8 11  1  0
  1 17  1  0
 16 17  1  0
  4 18  1  0
 18 19  1  0
 18 20  1  0
 18 21  1  0
 11 12  2  0
 12 13  1  0
 13 14  2  0
 14 15  1  0
 15 16  2  0
 16 11  1  0
  1  2  2  0
  2  5  1  0
  5  6  2  0
  6  4  1  0
  4  3  2  0
  3  1  1  0
M  END

$$$$
