No_4094-gen_results/8p0m/2024-11-27-11-27-31/
     RDKit          3D

 35 38  0  0  0  0  0  0  0  0999 V2000
  -28.0162   -0.8135   28.8779 C   0  0  0  0  0  0  0  0  0  0  0  0
  -27.0636   -0.1190   28.6079 C   0  0  0  0  0  0  0  0  0  0  0  0
  -26.9287    1.1713   29.0083 C   0  0  0  0  0  0  0  0  0  0  0  0
  -27.9560    1.7411   29.7840 C   0  0  0  0  0  0  0  0  0  0  0  0
  -29.0569   -0.3271   29.7466 C   0  0  0  0  0  0  0  0  0  0  0  0
  -28.9828    0.9722   30.1516 C   0  0  0  0  0  0  0  0  0  0  0  0
  -25.9911   -0.6119   27.8566 O   0  0  0  0  0  0  0  0  0  0  0  0
  -24.9038   -1.1483   28.5775 C   0  0  0  0  0  0  0  0  0  0  0  0
  -23.7733   -0.9238   28.7488 C   0  0  0  0  0  0  0  0  0  0  0  0
  -25.2670   -2.5528   29.1249 C   0  0  0  0  0  0  0  0  0  0  0  0
  -23.1848    0.4311   28.3210 C   0  0  0  0  0  0  0  0  0  0  0  0
  -23.8512    1.4508   27.6850 C   0  0  0  0  0  0  0  0  0  0  0  0
  -23.2019    2.5288   27.2034 C   0  0  0  0  0  0  0  0  0  0  0  0
  -24.0477    3.4666   26.4918 C   0  0  0  0  0  0  0  0  0  0  0  0
  -25.4186    3.2276   26.3671 C   0  0  0  0  0  0  0  0  0  0  0  0
  -25.9468    2.0942   26.5391 C   0  0  0  0  0  0  0  0  0  0  0  0
  -25.1152    1.1371   27.2079 C   0  0  0  0  0  0  0  0  0  0  0  0
  -25.0100    0.5018   25.9809 O   0  0  0  0  0  0  0  0  0  0  0  0
  -27.2182    1.8493   26.0772 C   0  0  0  0  0  0  0  0  0  0  0  0
  -28.1707    2.6074   26.2810 O   0  0  0  0  0  0  0  0  0  0  0  0
  -27.4940    0.9472   25.1109 N   0  0  0  0  0  0  0  0  0  0  0  0
  -28.7741    0.5990   24.5111 C   0  0  0  0  0  0  0  0  0  0  0  0
  -29.6591    0.1781   25.5009 C   0  0  0  0  0  0  0  0  0  0  0  0
  -30.9679    0.4532   25.1805 C   0  0  0  0  0  0  0  0  0  0  0  0
  -31.3136    0.6376   23.8897 C   0  0  0  0  0  0  0  0  0  0  0  0
  -30.3563    0.9499   22.9288 C   0  0  0  0  0  0  0  0  0  0  0  0
  -29.0506    1.0446   23.3255 C   0  0  0  0  0  0  0  0  0  0  0  0
  -24.3080   -3.4301   29.3852 C   0  0  0  0  0  0  0  0  0  0  0  0
  -22.9766   -2.9347   29.4605 C   0  0  0  0  0  0  0  0  0  0  0  0
  -22.7011   -1.6797   29.1152 C   0  0  0  0  0  0  0  0  0  0  0  0
  -30.2364   -1.1660   30.0507 C   0  0  0  0  0  0  0  0  0  0  0  0
  -31.2700   -1.0297   29.5134 O   0  0  0  0  0  0  0  0  0  0  0  0
  -30.0609   -2.1635   30.8565 O   0  0  0  0  0  0  0  0  0  0  0  0
  -21.9502    0.7641   28.8071 O   0  0  0  0  0  0  0  0  0  0  0  0
  -32.0892   -0.0924   26.1473 C   0  0  0  0  0  0  0  0  0  0  0  0
  2  7  1  0
  7  8  1  0
  9 11  1  0
 11 12  1  0
 17 18  1  0
 16 19  1  0
 19 20  2  0
 19 21  1  0
 21 22  1  0
  5 31  1  0
 31 32  1  0
 31 33  2  0
 11 34  2  0
 24 35  1  0
 12 13  2  0
 13 14  1  0
 14 15  2  0
 15 16  1  0
 16 17  2  0
 17 12  1  0
  8  9  2  0
  9 30  1  0
 30 29  2  0
 29 28  1  0
 28 10  2  0
 10  8  1  0
 22 23  2  0
 23 24  1  0
 24 25  2  0
 25 26  1  0
 26 27  2  0
 27 22  1  0
  1  2  2  0
  2  3  1  0
  3  4  2  0
  4  6  1  0
  6  5  2  0
  5  1  1  0
M  END

$$$$
