No_460-gen_results/8p0m/2024-11-27-11-27-31/
     RDKit          3D

 16 18  0  0  0  0  0  0  0  0999 V2000
  -28.1229   -1.3353   28.4874 O   0  0  0  0  0  0  0  0  0  0  0  0
  -27.0637   -0.8242   28.8687 C   0  0  0  0  0  0  0  0  0  0  0  0
  -26.4017   -0.0623   28.6224 C   0  0  0  0  0  0  0  0  0  0  0  0
  -26.2652   -1.8674   29.7609 N   0  0  0  0  0  0  0  0  0  0  0  0
  -25.0436    0.3924   29.0662 C   0  0  0  0  0  0  0  0  0  0  0  0
  -24.4695   -0.5141   30.0040 C   0  0  0  0  0  0  0  0  0  0  0  0
  -25.1312   -1.6601   30.2898 C   0  0  0  0  0  0  0  0  0  0  0  0
  -26.9016    1.1043   27.6572 C   0  0  0  0  0  0  0  0  0  0  0  0
  -27.2252    2.1036   27.9133 C   0  0  0  0  0  0  0  0  0  0  0  0
  -27.0991    2.5962   29.2867 C   0  0  0  0  0  0  0  0  0  0  0  0
  -27.4410    3.9744   29.5439 C   0  0  0  0  0  0  0  0  0  0  0  0
  -27.2375    4.5328   30.8421 C   0  0  0  0  0  0  0  0  0  0  0  0
  -26.7612    3.6621   31.8994 C   0  0  0  0  0  0  0  0  0  0  0  0
  -26.4279    2.3402   31.5987 C   0  0  0  0  0  0  0  0  0  0  0  0
  -26.5654    1.9089   30.3624 C   0  0  0  0  0  0  0  0  0  0  0  0
  -25.2589    1.6922   29.8751 O   0  0  0  0  0  0  0  0  0  0  0  0
  1  2  2  0
  2  3  1  0
  2  4  1  0
  3  5  1  0
  4  7  1  0
  6  7  1  0
  3  8  1  0
  8  9  1  0
  9 10  1  0
  5 16  1  0
 15 16  1  0
  5  6  1  0
 10 11  2  0
 11 12  1  0
 12 13  2  0
 13 14  1  0
 14 15  2  0
 15 10  1  0
M  END

$$$$
