No_4554-gen_results/8p0m/2024-11-27-11-27-31/
     RDKit          3D

  9  8  0  0  0  0  0  0  0  0999 V2000
  -28.1229   -1.3353   28.4874 O   0  0  0  0  0  0  0  0  0  0  0  0
  -28.5208   -0.4363   29.0779 C   0  0  0  0  0  0  0  0  0  0  0  0
  -28.5894    0.5916   28.9464 C   0  0  0  0  0  0  0  0  0  0  0  0
  -29.0845   -0.9256   30.3785 F   0  0  0  0  0  0  0  0  0  0  0  0
  -28.1354    1.5158   28.7328 C   0  0  0  0  0  0  0  0  0  0  0  0
  -27.9972    2.8106   29.4304 C   0  0  0  0  0  0  0  0  0  0  0  0
  -27.3458    4.0097   28.9224 C   0  0  0  0  0  0  0  0  0  0  0  0
  -26.5936    3.8382   27.6752 C   0  0  0  0  0  0  0  0  0  0  0  0
  -26.6113    2.6546   26.9852 C   0  0  0  0  0  0  0  0  0  0  0  0
  1  2  2  0
  2  3  1  0
  2  4  1  0
  3  5  3  0
  5  6  1  0
  6  7  2  3
  7  8  1  0
  8  9  2  0
M  END

$$$$
