No_474-gen_results/8p0m/2024-11-27-11-27-31/
     RDKit          3D

 25 26  0  0  0  0  0  0  0  0999 V2000
  -28.0162   -0.8135   28.8779 C   0  0  0  0  0  0  0  0  0  0  0  0
  -27.0636   -0.1190   28.6079 C   0  0  0  0  0  0  0  0  0  0  0  0
  -25.7647   -0.3897   29.0360 C   0  0  0  0  0  0  0  0  0  0  0  0
  -24.5516    0.4058   28.7646 C   0  0  0  0  0  0  0  0  0  0  0  0
  -24.6957    1.4480   27.7988 C   0  0  0  0  0  0  0  0  0  0  0  0
  -25.9755    1.7250   27.3077 C   0  0  0  0  0  0  0  0  0  0  0  0
  -27.0718    1.0134   27.6535 C   0  0  0  0  0  0  0  0  0  0  0  0
  -28.6178   -0.4695   30.2207 C   0  0  0  0  0  0  0  0  0  0  0  0
  -28.3380    0.4496   30.8246 N   0  0  0  0  0  0  0  0  0  0  0  0
  -29.6619   -1.5209   30.7129 C   0  0  0  0  0  0  0  0  0  0  0  0
  -23.4869    2.2141   27.5012 C   0  0  0  0  0  0  0  0  0  0  0  0
  -23.5846    3.1479   26.6300 N   0  0  0  0  0  0  0  0  0  0  0  0
  -22.3251    1.8993   27.9042 O   0  0  0  0  0  0  0  0  0  0  0  0
  -28.8822    0.8192   32.1268 C   0  0  0  0  0  0  0  0  0  0  0  0
  -30.2528   -1.1775   31.9781 C   0  0  0  0  0  0  0  0  0  0  0  0
  -29.8446   -0.0175   32.6755 C   0  0  0  0  0  0  0  0  0  0  0  0
  -28.5068    1.8686   32.7277 O   0  0  0  0  0  0  0  0  0  0  0  0
  -25.4596   -1.4334   30.0747 C   0  0  0  0  0  0  0  0  0  0  0  0
  -24.9866   -1.3335   30.9839 C   0  0  0  0  0  0  0  0  0  0  0  0
  -25.3173   -2.7892   29.3769 C   0  0  0  0  0  0  0  0  0  0  0  0
  -28.3481    1.4119   27.0302 C   0  0  0  0  0  0  0  0  0  0  0  0
  -28.4693    1.8298   26.0146 O   0  0  0  0  0  0  0  0  0  0  0  0
  -29.3606    1.2098   27.7910 O   0  0  0  0  0  0  0  0  0  0  0  0
  -24.1538   -3.2976   28.9100 C   0  0  0  0  0  0  0  0  0  0  0  0
  -24.1124   -4.5146   28.4690 N   0  0  0  0  0  0  0  0  0  0  0  0
  1  8  1  0
  8 10  1  0
  5 11  1  0
 11 12  1  0
 11 13  2  0
  9 14  1  0
 14 16  1  0
 15 16  1  0
 14 17  2  0
  3 18  1  0
 18 19  1  0
 18 20  1  0
  7 21  1  0
 21 22  2  0
 21 23  1  0
 20 24  2  3
 24 25  1  0
  1  2  1  0
  9  8  1  0
 10 15  1  0
  2  3  2  0
  3  4  1  0
  4  5  2  0
  5  6  1  0
  6  7  2  0
  7  2  1  0
M  END

$$$$
