No_4152-gen_results/8p0m/2024-11-27-11-27-31/
     RDKit          3D

 22 24  0  0  0  0  0  0  0  0999 V2000
  -28.1229   -1.3353   28.4874 O   0  0  0  0  0  0  0  0  0  0  0  0
  -27.4806   -0.4044   28.7094 C   0  0  0  0  0  0  0  0  0  0  0  0
  -26.3804   -0.0867   27.9394 C   0  0  0  0  0  0  0  0  0  0  0  0
  -27.8993    0.6459   29.6321 N   0  0  0  0  0  0  0  0  0  0  0  0
  -25.3739    0.7467   28.5670 C   0  0  0  0  0  0  0  0  0  0  0  0
  -25.8679    1.7559   29.4748 C   0  0  0  0  0  0  0  0  0  0  0  0
  -27.0255    1.5167   30.1406 C   0  0  0  0  0  0  0  0  0  0  0  0
  -29.1223    0.3153   30.3307 C   0  0  0  0  0  0  0  0  0  0  0  0
  -30.2627    0.7653   29.6316 C   0  0  0  0  0  0  0  0  0  0  0  0
  -31.3596    0.0699   29.7049 C   0  0  0  0  0  0  0  0  0  0  0  0
  -31.5506   -0.9309   30.7571 C   0  0  0  0  0  0  0  0  0  0  0  0
  -30.4088   -1.3410   31.4502 C   0  0  0  0  0  0  0  0  0  0  0  0
  -29.1024   -0.7987   31.1865 C   0  0  0  0  0  0  0  0  0  0  0  0
  -27.7947    2.8405   30.3971 C   0  0  0  0  0  0  0  0  0  0  0  0
  -28.0126    3.2802   31.4188 C   0  0  0  0  0  0  0  0  0  0  0  0
  -27.8790    3.6679   29.2399 C   0  0  0  0  0  0  0  0  0  0  0  0
  -28.5785    4.9080   29.3636 C   0  0  0  0  0  0  0  0  0  0  0  0
  -28.7624    4.5142   31.7328 C   0  0  0  0  0  0  0  0  0  0  0  0
  -28.9517    5.3356   30.6190 C   0  0  0  0  0  0  0  0  0  0  0  0
  -24.9064    2.8772   29.7965 C   0  0  0  0  0  0  0  0  0  0  0  0
  -23.7925    2.9885   29.2347 O   0  0  0  0  0  0  0  0  0  0  0  0
  -25.1072    3.6263   30.8929 O   0  0  0  0  0  0  0  0  0  0  0  0
  1  2  2  0
  2  3  1  0
  2  4  1  0
  5  6  1  0
  4  7  1  0
  6  7  1  0
  4  8  1  0
  7 14  1  0
  6 20  1  0
 20 21  2  0
 20 22  1  0
  3  5  1  0
 14 15  2  0
 15 18  1  0
 18 19  2  0
 19 17  1  0
 17 16  2  0
 16 14  1  0
  8  9  2  0
  9 10  1  0
 10 11  2  0
 11 12  1  0
 12 13  2  0
 13  8  1  0
M  END

$$$$
