No_4870-gen_results/8p0m/2024-11-27-11-27-31/
     RDKit          3D

 35 38  0  0  0  0  0  0  0  0999 V2000
  -28.0162   -0.8135   28.8779 C   0  0  0  0  0  0  0  0  0  0  0  0
  -28.4690   -0.7850   29.8287 C   0  0  0  0  0  0  0  0  0  0  0  0
  -26.5455   -0.8762   28.8500 C   0  0  0  0  0  0  0  0  0  0  0  0
  -25.8041   -1.0324   30.0571 C   0  0  0  0  0  0  0  0  0  0  0  0
  -27.9437   -0.9869   31.2075 C   0  0  0  0  0  0  0  0  0  0  0  0
  -26.5825   -1.0386   31.2231 C   0  0  0  0  0  0  0  0  0  0  0  0
  -29.9648   -0.7353   29.8902 N   0  0  0  0  0  0  0  0  0  0  0  0
  -30.5344   -0.0309   29.0060 C   0  0  0  0  0  0  0  0  0  0  0  0
  -31.8526   -0.4023   28.7249 C   0  0  0  0  0  0  0  0  0  0  0  0
  -30.7345   -1.5680   30.7138 C   0  0  0  0  0  0  0  0  0  0  0  0
  -32.0465   -1.8312   30.4793 C   0  0  0  0  0  0  0  0  0  0  0  0
  -32.6417   -1.1613   29.4973 C   0  0  0  0  0  0  0  0  0  0  0  0
  -24.3697   -1.0705   30.0555 C   0  0  0  0  0  0  0  0  0  0  0  0
  -23.7278    0.2196   30.0665 C   0  0  0  0  0  0  0  0  0  0  0  0
  -23.4640    0.8821   28.8631 C   0  0  0  0  0  0  0  0  0  0  0  0
  -22.1917    0.8575   28.4591 C   0  0  0  0  0  0  0  0  0  0  0  0
  -21.9135    1.6109   27.1591 C   0  0  0  0  0  0  0  0  0  0  0  0
  -22.9699    2.2580   26.5424 C   0  0  0  0  0  0  0  0  0  0  0  0
  -24.3756    1.6575   28.1299 C   0  0  0  0  0  0  0  0  0  0  0  0
  -24.1065    2.4043   27.1130 C   0  0  0  0  0  0  0  0  0  0  0  0
  -23.6748    0.9119   31.3645 C   0  0  0  0  0  0  0  0  0  0  0  0
  -25.1342    3.2373   26.4049 C   0  0  0  0  0  0  0  0  0  0  0  0
  -26.2492    3.6368   26.8463 N   0  0  0  0  0  0  0  0  0  0  0  0
  -26.3689    4.7204   27.5078 C   0  0  0  0  0  0  0  0  0  0  0  0
  -27.6391    5.1073   28.0337 C   0  0  0  0  0  0  0  0  0  0  0  0
  -27.3342    2.8149   26.6827 C   0  0  0  0  0  0  0  0  0  0  0  0
  -28.6341    3.1010   27.1782 C   0  0  0  0  0  0  0  0  0  0  0  0
  -28.7254    4.3231   27.8763 C   0  0  0  0  0  0  0  0  0  0  0  0
  -24.6860    3.8052   25.3743 O   0  0  0  0  0  0  0  0  0  0  0  0
  -33.9443   -1.3456   29.2439 O   0  0  0  0  0  0  0  0  0  0  0  0
  -30.0563    4.6885   28.4391 C   0  0  0  0  0  0  0  0  0  0  0  0
  -30.1232    4.8738   29.7165 C   0  0  0  0  0  0  0  0  0  0  0  0
  -31.4186    5.1228   30.3213 C   0  0  0  0  0  0  0  0  0  0  0  0
  -32.5119    5.1551   29.4546 C   0  0  0  0  0  0  0  0  0  0  0  0
  -31.0858    4.7867   27.5271 C   0  0  0  0  0  0  0  0  0  0  0  0
  2  7  1  0
  7  8  1  0
  7 10  1  0
  9 12  1  0
 11 12  1  0
  4 13  1  0
 13 14  1  0
 14 15  1  0
 14 21  1  0
 20 22  1  0
 22 23  1  0
 23 24  1  0
 23 26  1  0
 25 28  1  0
 27 28  1  0
 22 29  2  0
 12 30  1  0
 28 31  1  0
 31 32  1  0
 32 33  2  3
 33 34  1  0
 31 35  1  0
 24 25  1  0
 27 26  1  0
  8  9  1  0
 11 10  1  0
 15 16  2  0
 16 17  1  0
 17 18  2  0
 18 20  1  0
 20 19  2  0
 19 15  1  0
  1  2  2  0
  2  5  1  0
  5  6  2  0
  6  4  1  0
  4  3  2  0
  3  1  1  0
M  END

$$$$
