No_4416-gen_results/8p0m/2024-11-27-11-27-31/
     RDKit          3D

  8  8  0  0  0  0  0  0  0  0999 V2000
  -28.0162   -0.8135   28.8779 C   0  0  0  0  0  0  0  0  0  0  0  0
  -28.4690   -0.7850   29.8287 C   0  0  0  0  0  0  0  0  0  0  0  0
  -28.1816    0.4277   28.1134 C   0  0  0  0  0  0  0  0  0  0  0  0
  -28.1362    1.4586   28.7602 C   0  0  0  0  0  0  0  0  0  0  0  0
  -28.4245    0.3031   30.8388 C   0  0  0  0  0  0  0  0  0  0  0  0
  -28.6604    1.5827   30.1044 C   0  0  0  0  0  0  0  0  0  0  0  0
  -28.1264    0.3347   26.6560 C   0  0  0  0  0  0  0  0  0  0  0  0
  -26.8725    0.4444   25.9713 C   0  0  0  0  0  0  0  0  0  0  0  0
  1  2  1  0
  1  3  1  0
  3  4  1  0
  2  5  1  0
  4  6  1  0
  5  6  1  0
  3  7  1  0
  7  8  1  0
M  END

$$$$
