No_4580-gen_results/8p0m/2024-11-27-11-27-31/
     RDKit          3D

 14 16  0  0  0  0  0  0  0  0999 V2000
  -28.0162   -0.8135   28.8779 C   0  0  0  0  0  0  0  0  0  0  0  0
  -27.0636   -0.1190   28.6079 C   0  0  0  0  0  0  0  0  0  0  0  0
  -26.9716    0.7139   27.5060 C   0  0  0  0  0  0  0  0  0  0  0  0
  -25.8205    1.4909   27.1160 C   0  0  0  0  0  0  0  0  0  0  0  0
  -24.6562    1.4242   27.9180 C   0  0  0  0  0  0  0  0  0  0  0  0
  -24.6847    0.5901   29.0659 C   0  0  0  0  0  0  0  0  0  0  0  0
  -25.8099   -0.1266   29.3338 C   0  0  0  0  0  0  0  0  0  0  0  0
  -29.1935   -0.1896   29.0164 N   0  0  0  0  0  0  0  0  0  0  0  0
  -23.4634    2.1759   27.6079 C   0  0  0  0  0  0  0  0  0  0  0  0
  -22.2261    1.5869   28.1336 C   0  0  0  0  0  0  0  0  0  0  0  0
  -22.2470    0.7570   29.2343 C   0  0  0  0  0  0  0  0  0  0  0  0
  -23.4234    0.1730   29.6916 C   0  0  0  0  0  0  0  0  0  0  0  0
  -29.5653    0.7153   28.3803 C   0  0  0  0  0  0  0  0  0  0  0  0
  -28.5858    1.3286   27.5395 N   0  0  0  0  0  0  0  0  0  0  0  0
  3  4  1  0
  4  5  2  0
  6  7  2  0
  7  2  1  0
  1  2  2  0
  2  3  1  0
  3 14  2  0
 14 13  1  0
 13  8  2  0
  8  1  1  0
  5  6  1  0
  6 12  1  0
 12 11  2  0
 11 10  1  0
 10  9  2  0
  9  5  1  0
M  END

$$$$
