No_4644-gen_results/8p0m/2024-11-27-11-27-31/
     RDKit          3D

 33 37  0  0  0  0  0  0  0  0999 V2000
  -28.0162   -0.8135   28.8779 C   0  0  0  0  0  0  0  0  0  0  0  0
  -27.0636   -0.1190   28.6079 C   0  0  0  0  0  0  0  0  0  0  0  0
  -25.7647   -0.3897   29.0360 C   0  0  0  0  0  0  0  0  0  0  0  0
  -24.5516    0.4058   28.7646 C   0  0  0  0  0  0  0  0  0  0  0  0
  -23.2300    0.1178   29.2575 C   0  0  0  0  0  0  0  0  0  0  0  0
  -23.0942   -1.1309   29.8730 C   0  0  0  0  0  0  0  0  0  0  0  0
  -27.7981   -1.9341   29.8560 C   0  0  0  0  0  0  0  0  0  0  0  0
  -26.5420   -2.3269   30.2580 C   0  0  0  0  0  0  0  0  0  0  0  0
  -25.4514   -1.5516   29.9079 C   0  0  0  0  0  0  0  0  0  0  0  0
  -24.1562   -1.9097   30.2809 C   0  0  0  0  0  0  0  0  0  0  0  0
  -24.6450    1.6582   27.9464 C   0  0  0  0  0  0  0  0  0  0  0  0
  -24.8958    2.7559   28.5615 C   0  0  0  0  0  0  0  0  0  0  0  0
  -25.1728    3.9344   27.8440 C   0  0  0  0  0  0  0  0  0  0  0  0
  -24.4838    1.5571   26.5889 C   0  0  0  0  0  0  0  0  0  0  0  0
  -24.6321    2.6939   25.7850 C   0  0  0  0  0  0  0  0  0  0  0  0
  -24.8902    3.9231   26.4317 C   0  0  0  0  0  0  0  0  0  0  0  0
  -25.1519    2.9361   30.2805 Cl  0  0  0  0  0  0  0  0  0  0  0  0
  -29.0108   -2.7529   30.2316 C   0  0  0  0  0  0  0  0  0  0  0  0
  -29.2293   -2.7831   31.5272 O   0  0  0  0  0  0  0  0  0  0  0  0
  -29.5760   -3.5114   29.4878 O   0  0  0  0  0  0  0  0  0  0  0  0
  -25.4026    5.3276   28.4118 C   0  0  0  0  0  0  0  0  0  0  0  0
  -25.6169    5.4657   29.5278 O   0  0  0  0  0  0  0  0  0  0  0  0
  -25.5094    6.2689   27.5147 O   0  0  0  0  0  0  0  0  0  0  0  0
  -25.7059    6.7722   30.1084 C   0  0  0  0  0  0  0  0  0  0  0  0
  -25.4784    6.8513   31.4877 C   0  0  0  0  0  0  0  0  0  0  0  0
  -24.7378    7.7639   31.9609 C   0  0  0  0  0  0  0  0  0  0  0  0
  -24.2328    7.7175   33.3876 C   0  0  0  0  0  0  0  0  0  0  0  0
  -24.2062    6.7865   33.9699 C   0  0  0  0  0  0  0  0  0  0  0  0
  -24.8913    5.5509   33.5019 C   0  0  0  0  0  0  0  0  0  0  0  0
  -25.3481    5.6327   32.1889 C   0  0  0  0  0  0  0  0  0  0  0  0
  -24.6172    9.1389   31.2874 C   0  0  0  0  0  0  0  0  0  0  0  0
  -25.0336    9.1290   29.8881 C   0  0  0  0  0  0  0  0  0  0  0  0
  -25.5319    7.9325   29.3100 C   0  0  0  0  0  0  0  0  0  0  0  0
  4 11  1  0
 12 17  1  0
  7 18  1  0
 18 19  2  0
 18 20  1  0
 13 21  1  0
 21 22  1  0
 21 23  2  0
 22 24  1  0
 24 25  1  0
 26 31  1  0
 31 32  2  0
 32 33  1  0
 33 24  2  0
 25 26  1  0
 26 27  2  0
 27 28  1  0
 28 29  2  0
 29 30  1  0
 30 25  2  0
  1  2  2  0
  2  3  1  0
  9  8  1  0
  8  7  2  0
  7  1  1  0
  3  4  2  0
  4  5  1  0
  5  6  2  0
  6 10  1  0
 10  9  2  0
  9  3  1  0
 11 12  2  0
 12 13  1  0
 13 16  2  0
 16 15  1  0
 15 14  2  0
 14 11  1  0
M  END

$$$$
