No_4159-gen_results/8p0m/2024-11-27-11-27-31/
     RDKit          3D

 11 11  0  0  0  0  0  0  0  0999 V2000
  -28.1229   -1.3353   28.4874 O   0  0  0  0  0  0  0  0  0  0  0  0
  -27.0637   -0.8242   28.8687 C   0  0  0  0  0  0  0  0  0  0  0  0
  -26.9592    0.0926   29.7582 C   0  0  0  0  0  0  0  0  0  0  0  0
  -25.8011   -1.3566   28.3971 N   0  0  0  0  0  0  0  0  0  0  0  0
  -25.7368    0.7239   30.2099 C   0  0  0  0  0  0  0  0  0  0  0  0
  -24.5490   -0.8600   28.7870 C   0  0  0  0  0  0  0  0  0  0  0  0
  -24.5149    0.1880   29.6985 C   0  0  0  0  0  0  0  0  0  0  0  0
  -28.1851    0.6999   30.3575 C   0  0  0  0  0  0  0  0  0  0  0  0
  -28.8008    0.2067   31.2299 C   0  0  0  0  0  0  0  0  0  0  0  0
  -28.3591   -1.0825   31.8863 C   0  0  0  0  0  0  0  0  0  0  0  0
  -27.3422   -1.6231   31.5376 C   0  0  0  0  0  0  0  0  0  0  0  0
  1  2  2  0
  2  3  1  0
  2  4  1  0
  3  5  1  0
  6  7  1  0
  3  8  1  0
  8  9  2  3
  9 10  1  0
 10 11  2  0
  5  7  1  0
  6  4  1  0
M  END

$$$$
