No_4319-gen_results/8p0m/2024-11-27-11-27-31/
     RDKit          3D

 16 18  0  0  0  0  0  0  0  0999 V2000
  -28.0162   -0.8135   28.8779 C   0  0  0  0  0  0  0  0  0  0  0  0
  -27.0636   -0.1190   28.6079 C   0  0  0  0  0  0  0  0  0  0  0  0
  -25.7923   -0.4302   29.0761 C   0  0  0  0  0  0  0  0  0  0  0  0
  -24.5456    0.3494   28.8225 C   0  0  0  0  0  0  0  0  0  0  0  0
  -23.2409    0.0217   29.3323 C   0  0  0  0  0  0  0  0  0  0  0  0
  -27.8820   -1.8995   29.8633 C   0  0  0  0  0  0  0  0  0  0  0  0
  -26.6706   -2.3272   30.3212 C   0  0  0  0  0  0  0  0  0  0  0  0
  -25.5433   -1.5852   29.9316 C   0  0  0  0  0  0  0  0  0  0  0  0
  -22.1918    0.8302   29.0004 C   0  0  0  0  0  0  0  0  0  0  0  0
  -22.1472    1.7783   28.0287 C   0  0  0  0  0  0  0  0  0  0  0  0
  -24.5322    1.3987   27.8163 C   0  0  0  0  0  0  0  0  0  0  0  0
  -25.7399    1.6952   27.1553 C   0  0  0  0  0  0  0  0  0  0  0  0
  -23.3435    2.0893   27.4156 C   0  0  0  0  0  0  0  0  0  0  0  0
  -27.0476    1.0009   27.5891 C   0  0  0  0  0  0  0  0  0  0  0  0
  -28.1288    1.2301   26.9911 F   0  0  0  0  0  0  0  0  0  0  0  0
  -29.3114   -2.7588   30.2829 Cl  0  0  0  0  0  0  0  0  0  0  0  0
 14 15  1  0
  6 16  1  0
  4  5  2  0
  5  9  1  0
  9 10  2  0
 10 13  1  0
 13 11  2  0
  1  2  2  0
  3  8  2  0
  8  7  1  0
  7  6  2  0
  6  1  1  0
  2  3  1  0
  3  4  1  0
  4 11  1  0
 11 12  1  0
 12 14  2  0
 14  2  1  0
M  END

$$$$
