No_4852-gen_results/8p0m/2024-11-27-11-27-31/
     RDKit          3D

 24 26  0  0  0  0  0  0  0  0999 V2000
  -28.0162   -0.8135   28.8779 C   0  0  0  0  0  0  0  0  0  0  0  0
  -28.4690   -0.7850   29.8287 C   0  0  0  0  0  0  0  0  0  0  0  0
  -28.1816    0.4277   28.1134 C   0  0  0  0  0  0  0  0  0  0  0  0
  -27.4498    0.6435   26.8500 C   0  0  0  0  0  0  0  0  0  0  0  0
  -26.1815    0.0357   26.7145 C   0  0  0  0  0  0  0  0  0  0  0  0
  -25.7800   -0.9326   27.6938 C   0  0  0  0  0  0  0  0  0  0  0  0
  -26.5568   -1.2134   28.7413 C   0  0  0  0  0  0  0  0  0  0  0  0
  -29.6747   -0.4261   29.9581 F   0  0  0  0  0  0  0  0  0  0  0  0
  -27.8440   -0.5173   31.0217 F   0  0  0  0  0  0  0  0  0  0  0  0
  -28.5985   -2.3037   30.1247 F   0  0  0  0  0  0  0  0  0  0  0  0
  -27.7262    1.5466   25.9863 F   0  0  0  0  0  0  0  0  0  0  0  0
  -25.9686   -2.5369   29.7477 Cl  0  0  0  0  0  0  0  0  0  0  0  0
  -25.3602    0.2798   25.7516 O   0  0  0  0  0  0  0  0  0  0  0  0
  -24.3208    1.1428   25.9805 C   0  0  0  0  0  0  0  0  0  0  0  0
  -23.5651    1.1025   27.1074 C   0  0  0  0  0  0  0  0  0  0  0  0
  -22.4771    1.8589   27.3471 C   0  0  0  0  0  0  0  0  0  0  0  0
  -21.8513    1.8681   28.6502 C   0  0  0  0  0  0  0  0  0  0  0  0
  -22.4514    1.0631   29.6462 C   0  0  0  0  0  0  0  0  0  0  0  0
  -23.5958    0.3301   29.4800 C   0  0  0  0  0  0  0  0  0  0  0  0
  -24.2255    0.4099   28.2103 C   0  0  0  0  0  0  0  0  0  0  0  0
  -25.1359   -0.4416   28.0489 C   0  0  0  0  0  0  0  0  0  0  0  0
  -24.2341   -1.3620   28.6730 O   0  0  0  0  0  0  0  0  0  0  0  0
  -23.8473   -1.6217   29.7386 C   0  0  0  0  0  0  0  0  0  0  0  0
  -23.6682   -0.6654   30.4123 N   0  0  0  0  0  0  0  0  0  0  0  0
  1  2  1  0
  2  8  1  0
  2  9  1  0
  2 10  1  0
  4 11  1  0
  7 12  1  0
  5 13  1  0
 13 14  1  0
  6 21  1  0
 20 21  1  0
 21 22  1  0
 22 23  1  0
 23 24  1  0
 14 15  1  0
 15 16  2  0
 16 17  1  0
 17 18  2  0
 18 19  1  0
 19 20  2  0
 20 15  1  0
  1  3  2  0
  3  4  1  0
  4  5  2  0
  5  6  1  0
  6  7  2  0
  7  1  1  0
M  END

$$$$
