No_4783-gen_results/8p0m/2024-11-27-11-27-31/
     RDKit          3D

 13 14  0  0  0  0  0  0  0  0999 V2000
  -28.0162   -0.8135   28.8779 C   0  0  0  0  0  0  0  0  0  0  0  0
  -27.0636   -0.1190   28.6079 C   0  0  0  0  0  0  0  0  0  0  0  0
  -26.9716    0.7139   27.5060 C   0  0  0  0  0  0  0  0  0  0  0  0
  -28.1053    0.7744   26.6421 C   0  0  0  0  0  0  0  0  0  0  0  0
  -29.2008    0.1044   27.0527 C   0  0  0  0  0  0  0  0  0  0  0  0
  -29.2096   -0.6029   28.1853 C   0  0  0  0  0  0  0  0  0  0  0  0
  -30.3077    0.2215   26.2218 N   0  0  0  0  0  0  0  0  0  0  0  0
  -30.2379    0.2364   24.9221 C   0  0  0  0  0  0  0  0  0  0  0  0
  -29.1586    1.0085   24.4065 C   0  0  0  0  0  0  0  0  0  0  0  0
  -27.8868    1.0003   25.1879 C   0  0  0  0  0  0  0  0  0  0  0  0
  -31.6141   -0.3198   26.7214 C   0  0  0  0  0  0  0  0  0  0  0  0
  -32.7231    0.2190   26.1722 Cl  0  0  0  0  0  0  0  0  0  0  0  0
  -31.5546   -1.2034   27.6636 O   0  0  0  0  0  0  0  0  0  0  0  0
  5  7  1  0
  7  8  1  0
  8  9  1  0
  4 10  1  0
  7 11  1  0
 11 12  1  0
 11 13  2  0
 10  9  1  0
  1  2  2  0
  2  3  1  0
  3  4  2  0
  4  5  1  0
  5  6  2  0
  6  1  1  0
M  END

$$$$
