No_4146-gen_results/8p0m/2024-11-27-11-27-31/
     RDKit          3D

 15 16  0  0  0  0  0  0  0  0999 V2000
  -28.0162   -0.8135   28.8779 C   0  0  0  0  0  0  0  0  0  0  0  0
  -27.1876   -0.3590   28.4524 N   0  0  0  0  0  0  0  0  0  0  0  0
  -28.1059   -1.6261   30.0720 C   0  0  0  0  0  0  0  0  0  0  0  0
  -26.7940   -1.9729   30.6057 C   0  0  0  0  0  0  0  0  0  0  0  0
  -25.6390   -1.4719   30.0298 C   0  0  0  0  0  0  0  0  0  0  0  0
  -25.8378   -0.6143   28.9259 C   0  0  0  0  0  0  0  0  0  0  0  0
  -29.2565   -2.2365   30.6531 C   0  0  0  0  0  0  0  0  0  0  0  0
  -29.4758   -2.0964   31.9457 O   0  0  0  0  0  0  0  0  0  0  0  0
  -29.7918   -3.2833   30.0594 O   0  0  0  0  0  0  0  0  0  0  0  0
  -24.8679    0.1029   28.2283 N   0  0  0  0  0  0  0  0  0  0  0  0
  -23.5878    0.0594   28.7746 C   0  0  0  0  0  0  0  0  0  0  0  0
  -22.6373    1.0700   28.2347 C   0  0  0  0  0  0  0  0  0  0  0  0
  -23.0446    1.8026   27.1095 C   0  0  0  0  0  0  0  0  0  0  0  0
  -24.9248    1.0576   27.2307 C   0  0  0  0  0  0  0  0  0  0  0  0
  -24.1495    1.8539   26.7045 C   0  0  0  0  0  0  0  0  0  0  0  0
  3  7  1  0
  7  8  2  0
  7  9  1  0
  6 10  1  0
 10 11  1  0
 12 13  1  0
 10 14  1  0
 11 12  1  0
 13 15  1  0
 15 14  1  0
  1  2  2  0
  2  6  1  0
  6  5  2  0
  5  4  1  0
  4  3  2  0
  3  1  1  0
M  END

$$$$
