No_4318-gen_results/8p0m/2024-11-27-11-27-31/
     RDKit          3D

 18 19  0  0  0  0  0  0  0  0999 V2000
  -28.0162   -0.8135   28.8779 C   0  0  0  0  0  0  0  0  0  0  0  0
  -28.4690   -0.7850   29.8287 C   0  0  0  0  0  0  0  0  0  0  0  0
  -26.5042   -0.7777   28.8766 C   0  0  0  0  0  0  0  0  0  0  0  0
  -25.8103   -0.8531   30.1028 C   0  0  0  0  0  0  0  0  0  0  0  0
  -27.9906   -0.8916   31.2257 C   0  0  0  0  0  0  0  0  0  0  0  0
  -26.6042   -0.8676   31.2652 C   0  0  0  0  0  0  0  0  0  0  0  0
  -29.9765   -0.8288   29.8497 N   0  0  0  0  0  0  0  0  0  0  0  0
  -30.5795   -0.1232   28.9820 C   0  0  0  0  0  0  0  0  0  0  0  0
  -31.8655   -0.6748   28.4847 C   0  0  0  0  0  0  0  0  0  0  0  0
  -29.9935    0.6842   28.2122 O   0  0  0  0  0  0  0  0  0  0  0  0
  -32.1062   -0.8817   27.3470 N   0  0  0  0  0  0  0  0  0  0  0  0
  -31.5102   -0.4149   26.3004 C   0  0  0  0  0  0  0  0  0  0  0  0
  -31.3422   -1.2529   25.1247 C   0  0  0  0  0  0  0  0  0  0  0  0
  -33.0564   -1.9124   26.9133 C   0  0  0  0  0  0  0  0  0  0  0  0
  -33.8433   -2.5561   28.0114 C   0  0  0  0  0  0  0  0  0  0  0  0
  -33.0828   -2.4376   25.6671 C   0  0  0  0  0  0  0  0  0  0  0  0
  -32.3624   -2.0029   24.6627 C   0  0  0  0  0  0  0  0  0  0  0  0
  -32.6186   -0.8148   29.5487 O   0  0  0  0  0  0  0  0  0  0  0  0
  2  7  1  0
  7  8  1  0
  8  9  1  0
  8 10  2  0
  9 11  1  0
 11 12  1  0
 11 14  1  0
 14 15  1  0
 14 16  1  0
 13 17  1  0
  9 18  2  0
 12 13  1  0
 17 16  1  0
  1  2  2  0
  2  5  1  0
  5  6  2  0
  6  4  1  0
  4  3  2  0
  3  1  1  0
M  END

$$$$
