No_4964-gen_results/8p0m/2024-11-27-11-27-31/
     RDKit          3D

 16 17  0  0  0  0  0  0  0  0999 V2000
  -28.0162   -0.8135   28.8779 C   0  0  0  0  0  0  0  0  0  0  0  0
  -28.4690   -0.7850   29.8287 C   0  0  0  0  0  0  0  0  0  0  0  0
  -28.1960    0.3478   28.0550 C   0  0  0  0  0  0  0  0  0  0  0  0
  -27.4421    0.5100   26.7946 C   0  0  0  0  0  0  0  0  0  0  0  0
  -27.8427    1.3330   25.8056 C   0  0  0  0  0  0  0  0  0  0  0  0
  -29.4956    0.1092   30.3452 C   0  0  0  0  0  0  0  0  0  0  0  0
  -29.7284    1.1870   29.5687 C   0  0  0  0  0  0  0  0  0  0  0  0
  -29.0420    1.3665   28.3718 C   0  0  0  0  0  0  0  0  0  0  0  0
  -25.9380    0.8282   27.0228 C   0  0  0  0  0  0  0  0  0  0  0  0
  -25.1952   -0.0729   27.7019 C   0  0  0  0  0  0  0  0  0  0  0  0
  -23.8457    0.1260   28.0352 C   0  0  0  0  0  0  0  0  0  0  0  0
  -23.1940    1.2099   27.4793 C   0  0  0  0  0  0  0  0  0  0  0  0
  -23.8807    2.0906   26.5999 C   0  0  0  0  0  0  0  0  0  0  0  0
  -25.2917    1.8797   26.3899 C   0  0  0  0  0  0  0  0  0  0  0  0
  -21.7747    1.5033   27.7353 C   0  0  0  0  0  0  0  0  0  0  0  0
  -28.4901    2.4622   26.1033 C   0  0  0  0  0  0  0  0  0  0  0  0
  3  4  1  0
  4  5  1  0
  4  9  1  0
 12 15  1  0
  5 16  2  0
  9 10  2  0
 10 11  1  0
 11 12  2  0
 12 13  1  0
 13 14  2  0
 14  9  1  0
  1  2  2  0
  2  6  1  0
  6  7  2  0
  7  8  1  0
  8  3  2  0
  3  1  1  0
M  END

$$$$
