No_4591-gen_results/8p0m/2024-11-27-11-27-31/
     RDKit          3D

 16 18  0  0  0  0  0  0  0  0999 V2000
  -28.0162   -0.8135   28.8779 C   0  0  0  0  0  0  0  0  0  0  0  0
  -27.0636   -0.1189   28.6079 C   0  0  0  0  0  0  0  0  0  0  0  0
  -25.7923   -0.4302   29.0761 C   0  0  0  0  0  0  0  0  0  0  0  0
  -24.5456    0.3494   28.8225 C   0  0  0  0  0  0  0  0  0  0  0  0
  -23.2409    0.0217   29.3323 C   0  0  0  0  0  0  0  0  0  0  0  0
  -27.8820   -1.8995   29.8633 C   0  0  0  0  0  0  0  0  0  0  0  0
  -26.6477   -2.3421   30.3344 C   0  0  0  0  0  0  0  0  0  0  0  0
  -25.5040   -1.5657   29.9828 C   0  0  0  0  0  0  0  0  0  0  0  0
  -23.1961   -1.2256   30.0294 C   0  0  0  0  0  0  0  0  0  0  0  0
  -24.2356   -1.9383   30.3867 C   0  0  0  0  0  0  0  0  0  0  0  0
  -24.5779    1.5642   27.9594 C   0  0  0  0  0  0  0  0  0  0  0  0
  -24.7971    2.6936   28.5629 C   0  0  0  0  0  0  0  0  0  0  0  0
  -25.0795    3.8565   27.7924 C   0  0  0  0  0  0  0  0  0  0  0  0
  -24.4111    1.4475   26.6207 C   0  0  0  0  0  0  0  0  0  0  0  0
  -24.5230    2.5632   25.7896 C   0  0  0  0  0  0  0  0  0  0  0  0
  -24.8111    3.8221   26.4141 C   0  0  0  0  0  0  0  0  0  0  0  0
  4 11  1  0
  1  2  2  0
  2  3  1  0
  8  7  1  0
  7  6  2  0
  6  1  1  0
  3  4  2  0
  4  5  1  0
  5  9  2  0
  9 10  1  0
 10  8  2  0
  8  3  1  0
 11 12  2  0
 12 13  1  0
 13 16  2  0
 16 15  1  0
 15 14  2  0
 14 11  1  0
M  END

$$$$
