No_477-gen_results/8p0m/2024-11-27-11-27-31/
     RDKit          3D

 27 30  0  0  0  0  0  0  0  0999 V2000
  -28.0162   -0.8135   28.8779 C   0  0  0  0  0  0  0  0  0  0  0  0
  -27.0636   -0.1189   28.6079 C   0  0  0  0  0  0  0  0  0  0  0  0
  -26.9716    0.7139   27.5060 C   0  0  0  0  0  0  0  0  0  0  0  0
  -28.1053    0.7744   26.6421 C   0  0  0  0  0  0  0  0  0  0  0  0
  -29.2008    0.1044   27.0527 C   0  0  0  0  0  0  0  0  0  0  0  0
  -29.2096   -0.6029   28.1853 C   0  0  0  0  0  0  0  0  0  0  0  0
  -30.3044    0.2267   26.2604 O   0  0  0  0  0  0  0  0  0  0  0  0
  -25.7141   -0.2197   29.4065 C   0  0  0  0  0  0  0  0  0  0  0  0
  -25.2431    0.9659   30.1090 C   0  0  0  0  0  0  0  0  0  0  0  0
  -25.4781    1.1889   31.0809 C   0  0  0  0  0  0  0  0  0  0  0  0
  -25.0318    2.4799   31.8077 C   0  0  0  0  0  0  0  0  0  0  0  0
  -24.2345    1.7435   29.2785 C   0  0  0  0  0  0  0  0  0  0  0  0
  -23.7111    1.3326   28.0367 C   0  0  0  0  0  0  0  0  0  0  0  0
  -24.1389    3.3046   31.0970 C   0  0  0  0  0  0  0  0  0  0  0  0
  -23.6740    2.9423   29.8601 C   0  0  0  0  0  0  0  0  0  0  0  0
  -22.4647    0.6588   27.9852 C   0  0  0  0  0  0  0  0  0  0  0  0
  -24.1558    1.9132   26.8375 C   0  0  0  0  0  0  0  0  0  0  0  0
  -23.9039    2.4861   26.0290 C   0  0  0  0  0  0  0  0  0  0  0  0
  -23.5292    3.0238   24.8214 C   0  0  0  0  0  0  0  0  0  0  0  0
  -28.0752    1.6731   25.4607 C   0  0  0  0  0  0  0  0  0  0  0  0
  -29.0734    2.2319   25.0767 C   0  0  0  0  0  0  0  0  0  0  0  0
  -30.3217    1.1922   25.2727 C   0  0  0  0  0  0  0  0  0  0  0  0
  -25.7655   -1.3597   30.4113 C   0  0  0  0  0  0  0  0  0  0  0  0
  -24.6858   -0.9393   28.3347 C   0  0  0  0  0  0  0  0  0  0  0  0
  -23.3758   -0.5747   28.2570 C   0  0  0  0  0  0  0  0  0  0  0  0
  -27.0064    2.8572   25.8021 C   0  0  0  0  0  0  0  0  0  0  0  0
  -27.3737    0.7820   24.3573 C   0  0  0  0  0  0  0  0  0  0  0  0
  5  7  1  0
  2  8  1  0
  8  9  1  0
 12 13  1  0
 13 16  1  0
 13 17  1  0
 17 18  2  3
 18 19  1  0
  4 20  1  0
 20 21  1  0
  7 22  1  0
 21 22  1  0
  8 23  1  0
  8 24  1  0
 16 25  1  0
 24 25  1  0
 20 26  1  0
 20 27  1  0
  9 10  2  0
 10 11  1  0
 11 14  2  0
 14 15  1  0
 15 12  2  0
 12  9  1  0
  1  2  2  0
  2  3  1  0
  3  4  2  0
  4  5  1  0
  5  6  2  0
  6  1  1  0
M  END

$$$$
