No_4143-gen_results/8p0m/2024-11-27-11-27-31/
     RDKit          3D

 15 17  0  0  0  0  0  0  0  0999 V2000
  -28.0162   -0.8135   28.8779 C   0  0  0  0  0  0  0  0  0  0  0  0
  -27.0636   -0.1189   28.6079 C   0  0  0  0  0  0  0  0  0  0  0  0
  -25.8176   -0.3427   29.0488 N   0  0  0  0  0  0  0  0  0  0  0  0
  -24.6506    0.4444   28.7649 C   0  0  0  0  0  0  0  0  0  0  0  0
  -24.7153    1.3122   27.7191 C   0  0  0  0  0  0  0  0  0  0  0  0
  -23.6123    2.0895   27.3593 C   0  0  0  0  0  0  0  0  0  0  0  0
  -22.3656    1.7793   27.9567 C   0  0  0  0  0  0  0  0  0  0  0  0
  -22.2742    0.8511   28.9741 C   0  0  0  0  0  0  0  0  0  0  0  0
  -23.4448    0.1138   29.3645 C   0  0  0  0  0  0  0  0  0  0  0  0
  -29.3280   -0.2956   28.7995 C   0  0  0  0  0  0  0  0  0  0  0  0
  -29.5143    0.8269   27.9851 C   0  0  0  0  0  0  0  0  0  0  0  0
  -28.4699    1.5385   27.5167 C   0  0  0  0  0  0  0  0  0  0  0  0
  -27.1600    1.1745   27.8833 C   0  0  0  0  0  0  0  0  0  0  0  0
  -26.0117    1.8496   27.4229 C   0  0  0  0  0  0  0  0  0  0  0  0
  -26.1420    2.9760   26.5202 C   0  0  0  0  0  0  0  0  0  0  0  0
 14 15  1  0
  2  3  1  0
  3  4  2  0
  5 14  2  0
 14 13  1  0
  4  5  1  0
  5  6  1  0
  6  7  2  0
  7  8  1  0
  8  9  2  0
  9  4  1  0
  1  2  2  0
  2 13  1  0
 13 12  2  0
 12 11  1  0
 11 10  2  0
 10  1  1  0
M  END

$$$$
