No_4062-gen_results/8p0m/2024-11-27-11-27-31/
     RDKit          3D

 35 38  0  0  0  0  0  0  0  0999 V2000
  -28.0162   -0.8135   28.8779 C   0  0  0  0  0  0  0  0  0  0  0  0
  -28.4690   -0.7850   29.8287 C   0  0  0  0  0  0  0  0  0  0  0  0
  -26.5042   -0.7777   28.8766 C   0  0  0  0  0  0  0  0  0  0  0  0
  -25.8103   -0.8531   30.1028 C   0  0  0  0  0  0  0  0  0  0  0  0
  -27.9906   -0.8916   31.2257 C   0  0  0  0  0  0  0  0  0  0  0  0
  -26.6042   -0.8676   31.2652 C   0  0  0  0  0  0  0  0  0  0  0  0
  -24.4858   -0.8015   30.1495 N   0  0  0  0  0  0  0  0  0  0  0  0
  -23.6507   -1.2225   29.3703 C   0  0  0  0  0  0  0  0  0  0  0  0
  -22.2187   -0.8564   29.4916 C   0  0  0  0  0  0  0  0  0  0  0  0
  -23.7472   -0.0786   31.2222 C   0  0  0  0  0  0  0  0  0  0  0  0
  -22.3690   -0.0597   30.6556 C   0  0  0  0  0  0  0  0  0  0  0  0
  -30.0876   -0.7794   29.8294 C   0  0  0  0  0  0  0  0  0  0  0  0
  -30.7675   -1.5941   30.2748 O   0  0  0  0  0  0  0  0  0  0  0  0
  -30.5815    0.4438   29.4971 N   0  0  0  0  0  0  0  0  0  0  0  0
  -31.6158    0.7677   29.1924 C   0  0  0  0  0  0  0  0  0  0  0  0
  -31.8744    1.9483   28.8295 C   0  0  0  0  0  0  0  0  0  0  0  0
  -33.1344    2.5684   28.4913 C   0  0  0  0  0  0  0  0  0  0  0  0
  -34.2248    1.6571   28.5191 C   0  0  0  0  0  0  0  0  0  0  0  0
  -35.4732    2.1445   28.2082 C   0  0  0  0  0  0  0  0  0  0  0  0
  -34.0071    0.3295   28.8590 C   0  0  0  0  0  0  0  0  0  0  0  0
  -32.7686   -0.1070   29.2174 C   0  0  0  0  0  0  0  0  0  0  0  0
  -36.3675    1.9786   27.6579 C   0  0  0  0  0  0  0  0  0  0  0  0
  -37.6180    2.6809   27.5095 C   0  0  0  0  0  0  0  0  0  0  0  0
  -37.6691    3.9027   28.1771 C   0  0  0  0  0  0  0  0  0  0  0  0
  -36.6371    4.3239   28.9092 C   0  0  0  0  0  0  0  0  0  0  0  0
  -35.4763    3.6015   29.0485 C   0  0  0  0  0  0  0  0  0  0  0  0
  -38.9373    4.6828   28.0521 C   0  0  0  0  0  0  0  0  0  0  0  0
  -39.1140    5.7115   28.6735 O   0  0  0  0  0  0  0  0  0  0  0  0
  -39.8136    4.2255   27.2293 O   0  0  0  0  0  0  0  0  0  0  0  0
  -25.6394   -0.6649   27.4214 Cl  0  0  0  0  0  0  0  0  0  0  0  0
  -24.2845    0.7690   32.4950 Cl  0  0  0  0  0  0  0  0  0  0  0  0
  -36.4024    0.6377   26.8938 C   0  0  0  0  0  0  0  0  0  0  0  0
  -35.8252    0.3661   26.0113 C   0  0  0  0  0  0  0  0  0  0  0  0
  -35.8260   -0.9381   25.3634 C   0  0  0  0  0  0  0  0  0  0  0  0
  -37.2807   -0.3580   27.5167 C   0  0  0  0  0  0  0  0  0  0  0  0
  4  7  1  0
  7  8  1  0
  8  9  2  0
  7 10  1  0
  9 11  1  0
 10 11  2  0
  2 12  1  0
 12 13  2  0
 12 14  1  0
 14 15  1  0
 18 19  1  0
 24 27  1  0
 27 28  2  0
 27 29  1  0
  3 30  1  0
 10 31  1  0
 22 32  1  0
 32 33  2  3
 33 34  1  0
 32 35  1  0
 15 16  2  0
 16 17  1  0
 17 18  2  0
 18 20  1  0
 20 21  2  0
 21 15  1  0
  1  2  2  0
  2  5  1  0
  5  6  2  0
  6  4  1  0
  4  3  2  0
  3  1  1  0
 19 22  2  0
 22 23  1  0
 23 24  2  0
 24 25  1  0
 25 26  2  0
 26 19  1  0
M  END

$$$$
