No_4971-gen_results/8p0m/2024-11-27-11-27-31/
     RDKit          3D

 26 29  0  0  0  0  0  0  0  0999 V2000
  -28.0162   -0.8135   28.8779 C   0  0  0  0  0  0  0  0  0  0  0  0
  -27.0636   -0.1189   28.6079 C   0  0  0  0  0  0  0  0  0  0  0  0
  -25.7647   -0.3897   29.0360 C   0  0  0  0  0  0  0  0  0  0  0  0
  -25.5296   -1.5302   29.9014 C   0  0  0  0  0  0  0  0  0  0  0  0
  -26.6888   -2.2893   30.1810 C   0  0  0  0  0  0  0  0  0  0  0  0
  -27.8727   -1.9508   29.7373 C   0  0  0  0  0  0  0  0  0  0  0  0
  -24.5491    0.4100   28.7341 C   0  0  0  0  0  0  0  0  0  0  0  0
  -24.4789    1.1871   27.6843 C   0  0  0  0  0  0  0  0  0  0  0  0
  -23.2716    1.8973   27.3731 C   0  0  0  0  0  0  0  0  0  0  0  0
  -23.1837    2.7679   26.2739 C   0  0  0  0  0  0  0  0  0  0  0  0
  -23.3145    0.2570   29.5305 C   0  0  0  0  0  0  0  0  0  0  0  0
  -22.0590    1.6942   28.1239 C   0  0  0  0  0  0  0  0  0  0  0  0
  -22.1756    0.8466   29.2563 C   0  0  0  0  0  0  0  0  0  0  0  0
  -28.9321   -2.7167   30.0565 F   0  0  0  0  0  0  0  0  0  0  0  0
  -24.0825    3.3558   25.7733 C   0  0  0  0  0  0  0  0  0  0  0  0
  -25.4340    3.4198   26.4029 C   0  0  0  0  0  0  0  0  0  0  0  0
  -25.6009    2.1117   27.1534 C   0  0  0  0  0  0  0  0  0  0  0  0
  -29.3171   -0.6174   28.5772 O   0  0  0  0  0  0  0  0  0  0  0  0
  -29.5892    0.3372   27.5963 C   0  0  0  0  0  0  0  0  0  0  0  0
  -30.0813    1.5248   28.0337 C   0  0  0  0  0  0  0  0  0  0  0  0
  -30.3515    1.7824   29.2226 C   0  0  0  0  0  0  0  0  0  0  0  0
  -30.8522    3.0861   29.7380 C   0  0  0  0  0  0  0  0  0  0  0  0
  -31.0969    4.0290   28.7331 C   0  0  0  0  0  0  0  0  0  0  0  0
  -30.2846    2.6040   27.0424 C   0  0  0  0  0  0  0  0  0  0  0  0
  -30.7857    3.8209   27.4357 C   0  0  0  0  0  0  0  0  0  0  0  0
  -29.5227   -0.0377   26.4229 O   0  0  0  0  0  0  0  0  0  0  0  0
  3  7  1  0
  6 14  1  0
  1 18  1  0
 18 19  1  0
 19 20  1  0
 19 26  2  0
  9 10  2  0
 10 15  1  0
 15 16  2  0
 16 17  1  0
 17  8  2  0
  1  2  2  0
  2  3  1  0
  3  4  2  0
  4  5  1  0
  5  6  2  0
  6  1  1  0
  7  8  1  0
  8  9  1  0
  9 12  1  0
 12 13  2  0
 13 11  1  0
 11  7  2  0
 20 21  2  0
 21 22  1  0
 22 23  2  0
 23 25  1  0
 25 24  2  0
 24 20  1  0
M  END

$$$$
