No_4855-gen_results/8p0m/2024-11-27-11-27-31/
     RDKit          3D

 15 16  0  0  0  0  0  0  0  0999 V2000
  -28.0162   -0.8135   28.8779 C   0  0  0  0  0  0  0  0  0  0  0  0
  -28.4690   -0.7850   29.8287 C   0  0  0  0  0  0  0  0  0  0  0  0
  -27.0871    0.2903   28.6377 C   0  0  0  0  0  0  0  0  0  0  0  0
  -26.8317    1.2487   29.5869 C   0  0  0  0  0  0  0  0  0  0  0  0
  -28.3914    0.0801   31.0065 C   0  0  0  0  0  0  0  0  0  0  0  0
  -27.4940    1.1521   30.7841 C   0  0  0  0  0  0  0  0  0  0  0  0
  -26.3109    0.3918   27.3640 C   0  0  0  0  0  0  0  0  0  0  0  0
  -26.7673    1.0252   26.3723 C   0  0  0  0  0  0  0  0  0  0  0  0
  -24.9987   -0.1757   27.3492 C   0  0  0  0  0  0  0  0  0  0  0  0
  -26.1554    0.9015   25.0936 C   0  0  0  0  0  0  0  0  0  0  0  0
  -24.4559   -0.8093   28.5772 C   0  0  0  0  0  0  0  0  0  0  0  0
  -24.7249    0.4967   25.0511 C   0  0  0  0  0  0  0  0  0  0  0  0
  -24.2635   -0.0469   26.2014 C   0  0  0  0  0  0  0  0  0  0  0  0
  -23.3650   -0.3506   29.1859 C   0  0  0  0  0  0  0  0  0  0  0  0
  -22.8040   -1.0353   30.2635 C   0  0  0  0  0  0  0  0  0  0  0  0
  3  7  1  0
  9 11  1  0
 11 14  2  3
 14 15  1  0
  1  2  2  0
  2  5  1  0
  5  6  2  0
  6  4  1  0
  4  3  2  0
  3  1  1  0
  7  8  2  0
  8 10  1  0
 10 12  2  0
 12 13  1  0
 13  9  2  0
  9  7  1  0
M  END

$$$$
