No_4144-gen_results/8p0m/2024-11-27-11-27-31/
     RDKit          3D

 21 23  0  0  0  0  0  0  0  0999 V2000
  -28.0162   -0.8135   28.8779 C   0  0  0  0  0  0  0  0  0  0  0  0
  -27.0636   -0.1189   28.6079 C   0  0  0  0  0  0  0  0  0  0  0  0
  -26.9287    1.1713   29.0083 C   0  0  0  0  0  0  0  0  0  0  0  0
  -27.9560    1.7411   29.7840 C   0  0  0  0  0  0  0  0  0  0  0  0
  -29.0569   -0.3271   29.7466 C   0  0  0  0  0  0  0  0  0  0  0  0
  -28.9828    0.9722   30.1516 C   0  0  0  0  0  0  0  0  0  0  0  0
  -25.8907   -0.6263   27.7857 C   0  0  0  0  0  0  0  0  0  0  0  0
  -24.5686   -0.1994   28.1996 C   0  0  0  0  0  0  0  0  0  0  0  0
  -24.3831    1.1808   28.3462 C   0  0  0  0  0  0  0  0  0  0  0  0
  -23.0980    1.7976   28.4856 C   0  0  0  0  0  0  0  0  0  0  0  0
  -25.6220    1.9669   28.8660 C   0  0  0  0  0  0  0  0  0  0  0  0
  -22.0578    1.2531   27.7827 N   0  0  0  0  0  0  0  0  0  0  0  0
  -25.7042    3.1885   27.8695 C   0  0  0  0  0  0  0  0  0  0  0  0
  -25.1670    2.5963   30.2971 C   0  0  0  0  0  0  0  0  0  0  0  0
  -25.7316    3.9569   30.7455 Cl  0  0  0  0  0  0  0  0  0  0  0  0
  -24.3085    1.9515   31.0111 O   0  0  0  0  0  0  0  0  0  0  0  0
  -26.8499    3.7180   27.6133 C   0  0  0  0  0  0  0  0  0  0  0  0
  -24.5946    3.6577   27.1973 C   0  0  0  0  0  0  0  0  0  0  0  0
  -27.2533    4.5860   26.7044 C   0  0  0  0  0  0  0  0  0  0  0  0
  -24.8533    4.7314   26.2160 C   0  0  0  0  0  0  0  0  0  0  0  0
  -26.0985    5.2134   26.0234 C   0  0  0  0  0  0  0  0  0  0  0  0
  2  7  1  0
  7  8  1  0
  9 10  1  0
  3 11  1  0
  9 11  1  0
 10 12  1  0
 11 13  1  0
 11 14  1  0
 14 15  1  0
 14 16  2  0
  8  9  1  0
 13 17  2  0
 17 19  1  0
 19 21  2  0
 21 20  1  0
 20 18  2  0
 18 13  1  0
  1  2  2  0
  2  3  1  0
  3  4  2  0
  4  6  1  0
  6  5  2  0
  5  1  1  0
M  END

$$$$
