No_4134-gen_results/8p0m/2024-11-27-11-27-31/
     RDKit          3D

 35 38  0  0  0  0  0  0  0  0999 V2000
  -28.0162   -0.8135   28.8779 C   0  0  0  0  0  0  0  0  0  0  0  0
  -28.4690   -0.7850   29.8287 C   0  0  0  0  0  0  0  0  0  0  0  0
  -27.0871    0.2903   28.6377 C   0  0  0  0  0  0  0  0  0  0  0  0
  -26.8317    1.2487   29.5869 C   0  0  0  0  0  0  0  0  0  0  0  0
  -28.3914    0.0801   31.0065 C   0  0  0  0  0  0  0  0  0  0  0  0
  -27.4940    1.1521   30.7841 C   0  0  0  0  0  0  0  0  0  0  0  0
  -26.3172    0.3994   27.3653 C   0  0  0  0  0  0  0  0  0  0  0  0
  -26.8815    0.9711   26.3721 C   0  0  0  0  0  0  0  0  0  0  0  0
  -26.1464    0.9703   25.0973 C   0  0  0  0  0  0  0  0  0  0  0  0
  -24.7793    0.5609   25.1117 C   0  0  0  0  0  0  0  0  0  0  0  0
  -25.1091   -0.1427   27.2537 C   0  0  0  0  0  0  0  0  0  0  0  0
  -24.3195   -0.0313   26.2100 C   0  0  0  0  0  0  0  0  0  0  0  0
  -24.3544   -0.8929   28.6934 Cl  0  0  0  0  0  0  0  0  0  0  0  0
  -28.4907    1.5422   26.2667 Cl  0  0  0  0  0  0  0  0  0  0  0  0
  -29.4995   -1.9721   30.2086 C   0  0  0  0  0  0  0  0  0  0  0  0
  -29.2238   -2.9107   30.7277 O   0  0  0  0  0  0  0  0  0  0  0  0
  -30.7059   -1.5807   30.0227 O   0  0  0  0  0  0  0  0  0  0  0  0
  -31.6533   -2.5284   29.6859 C   0  0  0  0  0  0  0  0  0  0  0  0
  -31.8743   -3.4431   30.0309 C   0  0  0  0  0  0  0  0  0  0  0  0
  -32.5218   -1.9410   28.5262 C   0  0  0  0  0  0  0  0  0  0  0  0
  -32.9043   -4.4104   29.6248 C   0  0  0  0  0  0  0  0  0  0  0  0
  -32.3148   -0.6893   27.9222 N   0  0  0  0  0  0  0  0  0  0  0  0
  -33.7248   -3.9128   28.6158 C   0  0  0  0  0  0  0  0  0  0  0  0
  -33.5124   -2.6941   28.0741 C   0  0  0  0  0  0  0  0  0  0  0  0
  -32.2924   -0.3982   26.7131 C   0  0  0  0  0  0  0  0  0  0  0  0
  -31.6778   -0.8795   25.8648 C   0  0  0  0  0  0  0  0  0  0  0  0
  -31.6205   -0.5445   24.4625 C   0  0  0  0  0  0  0  0  0  0  0  0
  -32.3363    0.5387   24.0651 C   0  0  0  0  0  0  0  0  0  0  0  0
  -33.0680    0.8124   26.4188 C   0  0  0  0  0  0  0  0  0  0  0  0
  -33.0919    1.2348   25.0414 C   0  0  0  0  0  0  0  0  0  0  0  0
  -32.8139    0.4367   28.9167 C   0  0  0  0  0  0  0  0  0  0  0  0
  -32.4798    0.4405   30.1739 C   0  0  0  0  0  0  0  0  0  0  0  0
  -32.9404    1.5407   30.9748 C   0  0  0  0  0  0  0  0  0  0  0  0
  -32.7348    1.5999   32.3912 C   0  0  0  0  0  0  0  0  0  0  0  0
  -33.6161    1.6029   27.3700 C   0  0  0  0  0  0  0  0  0  0  0  0
  3  7  1  0
 11 13  1  0
  8 14  1  0
  2 15  1  0
 15 16  2  0
 15 17  1  0
 17 18  1  0
 20 22  1  0
 22 25  1  0
 22 31  1  0
 31 32  1  0
 32 33  2  3
 33 34  1  0
 29 35  1  0
  7  8  2  0
  8  9  1  0
  9 10  2  0
 10 12  1  0
 12 11  2  0
 11  7  1  0
 18 19  2  0
 19 21  1  0
 21 23  2  0
 23 24  1  0
 24 20  2  0
 20 18  1  0
 25 26  2  0
 26 27  1  0
 27 28  2  0
 28 30  1  0
 30 29  2  0
 29 25  1  0
  1  2  2  0
  2  5  1  0
  5  6  2  0
  6  4  1  0
  4  3  2  0
  3  1  1  0
M  END

$$$$
