No_4525-gen_results/8p0m/2024-11-27-11-27-31/
     RDKit          3D

 17 18  0  0  0  0  0  0  0  0999 V2000
  -28.0162   -0.8135   28.8779 C   0  0  0  0  0  0  0  0  0  0  0  0
  -28.4690   -0.7850   29.8287 C   0  0  0  0  0  0  0  0  0  0  0  0
  -27.0871    0.2903   28.6377 C   0  0  0  0  0  0  0  0  0  0  0  0
  -26.2516    0.4114   27.4223 C   0  0  0  0  0  0  0  0  0  0  0  0
  -28.3913    0.1041   30.9805 C   0  0  0  0  0  0  0  0  0  0  0  0
  -27.5332    1.1666   30.7866 C   0  0  0  0  0  0  0  0  0  0  0  0
  -26.8281    1.2557   29.6454 C   0  0  0  0  0  0  0  0  0  0  0  0
  -26.4955   -0.2382   26.5458 F   0  0  0  0  0  0  0  0  0  0  0  0
  -25.9335    1.6794   27.1007 F   0  0  0  0  0  0  0  0  0  0  0  0
  -24.8755   -0.0622   27.7948 F   0  0  0  0  0  0  0  0  0  0  0  0
  -29.3563   -1.9022   30.1519 F   0  0  0  0  0  0  0  0  0  0  0  0
  -27.3341    2.2175   31.8476 C   0  0  0  0  0  0  0  0  0  0  0  0
  -26.4836    2.9784   31.8140 C   0  0  0  0  0  0  0  0  0  0  0  0
  -26.0377    3.9740   32.2853 C   0  0  0  0  0  0  0  0  0  0  0  0
  -26.9388    4.7111   33.1512 C   0  0  0  0  0  0  0  0  0  0  0  0
  -28.1083    3.9151   33.4474 C   0  0  0  0  0  0  0  0  0  0  0  0
  -28.4129    2.7292   32.7359 C   0  0  0  0  0  0  0  0  0  0  0  0
  3  4  1  0
  4  8  1  0
  4  9  1  0
  4 10  1  0
  2 11  1  0
  6 12  1  0
 12 13  2  0
 13 14  1  0
 14 15  2  0
 15 16  1  0
 16 17  2  0
 17 12  1  0
  1  2  2  0
  2  5  1  0
  5  6  2  0
  6  7  1  0
  7  3  2  0
  3  1  1  0
M  END

$$$$
