No_4670-gen_results/8p0m/2024-11-27-11-27-31/
     RDKit          3D

 25 28  0  0  0  0  0  0  0  0999 V2000
  -28.0162   -0.8135   28.8779 C   0  0  0  0  0  0  0  0  0  0  0  0
  -27.0636   -0.1189   28.6079 C   0  0  0  0  0  0  0  0  0  0  0  0
  -27.0010    0.6913   27.4910 C   0  0  0  0  0  0  0  0  0  0  0  0
  -28.1373    0.7363   26.6350 C   0  0  0  0  0  0  0  0  0  0  0  0
  -29.2360    0.0765   27.0690 C   0  0  0  0  0  0  0  0  0  0  0  0
  -29.2177   -0.6429   28.1747 C   0  0  0  0  0  0  0  0  0  0  0  0
  -30.3516    0.1564   26.2430 N   0  0  0  0  0  0  0  0  0  0  0  0
  -31.4313   -0.4312   26.5996 C   0  0  0  0  0  0  0  0  0  0  0  0
  -31.5398   -1.0043   27.8472 C   0  0  0  0  0  0  0  0  0  0  0  0
  -30.4352   -1.2124   28.6022 C   0  0  0  0  0  0  0  0  0  0  0  0
  -27.9781   -1.5532   30.0593 O   0  0  0  0  0  0  0  0  0  0  0  0
  -27.9761    1.5620   25.4091 C   0  0  0  0  0  0  0  0  0  0  0  0
  -26.8580    2.0887   25.1096 C   0  0  0  0  0  0  0  0  0  0  0  0
  -25.6929    2.1348   25.9160 C   0  0  0  0  0  0  0  0  0  0  0  0
  -25.6920    1.3710   27.1018 C   0  0  0  0  0  0  0  0  0  0  0  0
  -24.4953    1.3250   27.8836 C   0  0  0  0  0  0  0  0  0  0  0  0
  -23.5517    2.0351   27.7030 N   0  0  0  0  0  0  0  0  0  0  0  0
  -22.3096    1.7023   28.0904 C   0  0  0  0  0  0  0  0  0  0  0  0
  -22.1074    0.3314   28.3143 C   0  0  0  0  0  0  0  0  0  0  0  0
  -24.8004    0.9132   29.0855 F   0  0  0  0  0  0  0  0  0  0  0  0
  -20.7498   -0.0601   28.6833 C   0  0  0  0  0  0  0  0  0  0  0  0
  -20.7120   -1.4342   29.0618 C   0  0  0  0  0  0  0  0  0  0  0  0
  -21.8937   -2.0187   29.1852 N   0  0  0  0  0  0  0  0  0  0  0  0
  -22.8091   -0.9001   28.8060 C   0  0  0  0  0  0  0  0  0  0  0  0
  -26.8593   -2.2481   30.3321 C   0  0  0  0  0  0  0  0  0  0  0  0
  1 11  1  0
 15 16  1  0
 16 17  2  3
 17 18  1  0
 18 19  1  0
 16 20  1  0
 19 21  2  0
 21 22  1  0
 22 23  2  0
 19 24  1  0
 23 24  1  0
 11 25  1  0
  1  2  2  0
  2  3  1  0
  4  5  1  0
  6  1  1  0
  5  6  2  0
  6 10  1  0
 10  9  2  0
  9  8  1  0
  8  7  2  0
  7  5  1  0
  3  4  2  0
  4 12  1  0
 12 13  2  0
 13 14  1  0
 14 15  2  0
 15  3  1  0
M  END

$$$$
