No_4680-gen_results/8p0m/2024-11-27-11-27-31/
     RDKit          3D

 15 15  0  0  0  0  0  0  0  0999 V2000
  -28.0162   -0.8135   28.8779 C   0  0  0  0  0  0  0  0  0  0  0  0
  -28.4690   -0.7850   29.8287 C   0  0  0  0  0  0  0  0  0  0  0  0
  -27.0871    0.2903   28.6377 C   0  0  0  0  0  0  0  0  0  0  0  0
  -26.8317    1.2487   29.5869 C   0  0  0  0  0  0  0  0  0  0  0  0
  -28.3914    0.0801   31.0065 C   0  0  0  0  0  0  0  0  0  0  0  0
  -27.4940    1.1521   30.7841 C   0  0  0  0  0  0  0  0  0  0  0  0
  -26.3172    0.3994   27.3653 C   0  0  0  0  0  0  0  0  0  0  0  0
  -26.8990    0.5820   26.4031 O   0  0  0  0  0  0  0  0  0  0  0  0
  -24.9827    0.3252   27.4295 O   0  0  0  0  0  0  0  0  0  0  0  0
  -24.2407    1.3664   26.9544 C   0  0  0  0  0  0  0  0  0  0  0  0
  -23.5529    2.2125   28.0638 C   0  0  0  0  0  0  0  0  0  0  0  0
  -24.1726    1.7281   25.6583 C   0  0  0  0  0  0  0  0  0  0  0  0
  -23.5983    1.8396   29.2215 O   0  0  0  0  0  0  0  0  0  0  0  0
  -23.3373    2.6887   25.2686 F   0  0  0  0  0  0  0  0  0  0  0  0
  -25.3519    1.8627   25.1600 F   0  0  0  0  0  0  0  0  0  0  0  0
  3  7  1  0
  7  8  2  0
  7  9  1  0
  9 10  1  0
 10 11  1  0
 10 12  1  0
 11 13  1  0
 12 14  1  0
 12 15  1  0
  1  2  2  0
  2  5  1  0
  5  6  2  0
  6  4  1  0
  4  3  2  0
  3  1  1  0
M  END

$$$$
