No_4412-gen_results/8p0m/2024-11-27-11-27-31/
     RDKit          3D

 26 27  0  0  0  0  0  0  0  0999 V2000
  -28.0162   -0.8135   28.8779 C   0  0  0  0  0  0  0  0  0  0  0  0
  -28.4690   -0.7850   29.8287 C   0  0  0  0  0  0  0  0  0  0  0  0
  -26.5042   -0.7777   28.8766 C   0  0  0  0  0  0  0  0  0  0  0  0
  -25.6540   -0.6597   27.7191 C   0  0  0  0  0  0  0  0  0  0  0  0
  -27.9180   -0.9374   31.1824 C   0  0  0  0  0  0  0  0  0  0  0  0
  -26.5423   -0.9399   31.2606 C   0  0  0  0  0  0  0  0  0  0  0  0
  -25.7832   -0.8935   30.1201 C   0  0  0  0  0  0  0  0  0  0  0  0
  -25.8989    0.3149   26.7473 C   0  0  0  0  0  0  0  0  0  0  0  0
  -24.9195    0.8239   26.0056 C   0  0  0  0  0  0  0  0  0  0  0  0
  -23.6531    0.9933   26.4201 C   0  0  0  0  0  0  0  0  0  0  0  0
  -22.6997    1.8522   25.7559 C   0  0  0  0  0  0  0  0  0  0  0  0
  -23.4821    1.1714   27.9069 C   0  0  0  0  0  0  0  0  0  0  0  0
  -22.1404    1.2686   28.3953 C   0  0  0  0  0  0  0  0  0  0  0  0
  -21.1795    1.8603   27.6391 C   0  0  0  0  0  0  0  0  0  0  0  0
  -21.4425    2.0892   26.2653 C   0  0  0  0  0  0  0  0  0  0  0  0
  -24.5325   -0.9871   30.2218 F   0  0  0  0  0  0  0  0  0  0  0  0
  -30.0605   -0.7815   29.8425 C   0  0  0  0  0  0  0  0  0  0  0  0
  -30.6106   -1.7775   30.1092 O   0  0  0  0  0  0  0  0  0  0  0  0
  -30.6362    0.3470   29.4860 N   0  0  0  0  0  0  0  0  0  0  0  0
  -32.0698    0.4320   29.3586 C   0  0  0  0  0  0  0  0  0  0  0  0
  -29.9076    1.6195   29.1953 C   0  0  0  0  0  0  0  0  0  0  0  0
  -29.9241    2.0086   27.9495 C   0  0  0  0  0  0  0  0  0  0  0  0
  -30.6101    3.0949   27.5845 C   0  0  0  0  0  0  0  0  0  0  0  0
  -30.6206    3.5111   26.1875 C   0  0  0  0  0  0  0  0  0  0  0  0
  -29.8548    2.7935   25.2470 C   0  0  0  0  0  0  0  0  0  0  0  0
  -29.1092    1.7410   25.6422 C   0  0  0  0  0  0  0  0  0  0  0  0
  3  4  1  0
  4  8  1  0
  8  9  2  3
  9 10  1  0
  7 16  1  0
  2 17  1  0
 17 18  2  0
 17 19  1  0
 19 20  1  0
 19 21  1  0
 21 22  2  3
 22 23  1  0
 23 24  2  3
 24 25  1  0
 25 26  2  0
 10 11  2  0
 11 15  1  0
 15 14  2  0
 14 13  1  0
 13 12  2  0
 12 10  1  0
  1  2  2  0
  2  5  1  0
  5  6  2  0
  6  7  1  0
  7  3  2  0
  3  1  1  0
M  END

$$$$
