No_493-gen_results/8p0m/2024-11-27-11-27-31/
     RDKit          3D

 15 15  0  0  0  0  0  0  0  0999 V2000
  -28.0162   -0.8135   28.8779 C   0  0  0  0  0  0  0  0  0  0  0  0
  -27.0636   -0.1190   28.6079 C   0  0  0  0  0  0  0  0  0  0  0  0
  -27.0010    0.6913   27.4910 C   0  0  0  0  0  0  0  0  0  0  0  0
  -28.1373    0.7363   26.6350 C   0  0  0  0  0  0  0  0  0  0  0  0
  -29.2360    0.0765   27.0690 C   0  0  0  0  0  0  0  0  0  0  0  0
  -29.2177   -0.6429   28.1747 C   0  0  0  0  0  0  0  0  0  0  0  0
  -30.6116    0.1653   26.0711 Cl  0  0  0  0  0  0  0  0  0  0  0  0
  -25.7122   -0.2157   29.4104 C   0  0  0  0  0  0  0  0  0  0  0  0
  -25.3968    0.8425   29.9250 F   0  0  0  0  0  0  0  0  0  0  0  0
  -25.9182   -1.1063   30.3974 F   0  0  0  0  0  0  0  0  0  0  0  0
  -24.6934   -0.5963   28.6569 F   0  0  0  0  0  0  0  0  0  0  0  0
  -27.8402    1.5608   25.4232 C   0  0  0  0  0  0  0  0  0  0  0  0
  -26.7701    1.5404   24.8690 F   0  0  0  0  0  0  0  0  0  0  0  0
  -28.1975    2.8337   25.7630 F   0  0  0  0  0  0  0  0  0  0  0  0
  -28.7460    1.1745   24.4365 F   0  0  0  0  0  0  0  0  0  0  0  0
  5  7  1  0
  2  8  1  0
  8  9  1  0
  8 10  1  0
  8 11  1  0
  4 12  1  0
 12 13  1  0
 12 14  1  0
 12 15  1  0
  1  2  2  0
  2  3  1  0
  3  4  2  0
  4  5  1  0
  5  6  2  0
  6  1  1  0
M  END

$$$$
