No_4250-gen_results/8p0m/2024-11-27-11-27-31/
     RDKit          3D

 35 38  0  0  0  0  0  0  0  0999 V2000
  -28.0162   -0.8135   28.8779 C   0  0  0  0  0  0  0  0  0  0  0  0
  -27.0636   -0.1189   28.6079 C   0  0  0  0  0  0  0  0  0  0  0  0
  -27.0010    0.6913   27.4910 C   0  0  0  0  0  0  0  0  0  0  0  0
  -25.8548    1.4825   27.0830 C   0  0  0  0  0  0  0  0  0  0  0  0
  -24.9008    1.3894   27.5922 C   0  0  0  0  0  0  0  0  0  0  0  0
  -24.6783    0.5764   28.8299 C   0  0  0  0  0  0  0  0  0  0  0  0
  -25.7704   -0.2051   29.2800 C   0  0  0  0  0  0  0  0  0  0  0  0
  -27.9472   -1.4840   30.2151 C   0  0  0  0  0  0  0  0  0  0  0  0
  -29.1018   -2.2423   30.6432 C   0  0  0  0  0  0  0  0  0  0  0  0
  -28.9270   -3.4665   31.0984 C   0  0  0  0  0  0  0  0  0  0  0  0
  -30.0666   -4.1730   31.5395 C   0  0  0  0  0  0  0  0  0  0  0  0
  -31.3250   -3.6299   31.4382 C   0  0  0  0  0  0  0  0  0  0  0  0
  -31.4362   -2.3485   31.0093 C   0  0  0  0  0  0  0  0  0  0  0  0
  -30.3118   -1.6143   30.6193 C   0  0  0  0  0  0  0  0  0  0  0  0
  -27.2524   -0.7182   31.1823 C   0  0  0  0  0  0  0  0  0  0  0  0
  -25.8542   -0.3622   30.7278 C   0  0  0  0  0  0  0  0  0  0  0  0
  -23.5508    2.0888   27.1675 C   0  0  0  0  0  0  0  0  0  0  0  0
  -23.5493    2.6856   26.1267 F   0  0  0  0  0  0  0  0  0  0  0  0
  -23.1509    3.0451   28.2026 F   0  0  0  0  0  0  0  0  0  0  0  0
  -22.4088    1.2837   27.1944 F   0  0  0  0  0  0  0  0  0  0  0  0
  -28.2278    0.8423   26.6217 C   0  0  0  0  0  0  0  0  0  0  0  0
  -28.2177    0.4558   25.3316 C   0  0  0  0  0  0  0  0  0  0  0  0
  -28.9802    0.9437   24.5698 C   0  0  0  0  0  0  0  0  0  0  0  0
  -30.1626    1.7176   24.8550 C   0  0  0  0  0  0  0  0  0  0  0  0
  -29.3891    1.4446   27.1813 C   0  0  0  0  0  0  0  0  0  0  0  0
  -30.3426    1.9335   26.2755 C   0  0  0  0  0  0  0  0  0  0  0  0
  -24.7659   -0.1772   31.6605 C   0  0  0  0  0  0  0  0  0  0  0  0
  -23.7049   -0.5196   31.3813 C   0  0  0  0  0  0  0  0  0  0  0  0
  -24.9676    0.8321   32.7020 C   0  0  0  0  0  0  0  0  0  0  0  0
  -31.5511    2.6249   26.7201 C   0  0  0  0  0  0  0  0  0  0  0  0
  -32.5677    2.5349   26.6051 Cl  0  0  0  0  0  0  0  0  0  0  0  0
  -31.0180    3.8583   27.0240 F   0  0  0  0  0  0  0  0  0  0  0  0
  -32.7966   -1.7130   30.9729 C   0  0  0  0  0  0  0  0  0  0  0  0
  -33.4070   -1.5206   30.0837 N   0  0  0  0  0  0  0  0  0  0  0  0
  -33.0832   -1.8631   28.8938 C   0  0  0  0  0  0  0  0  0  0  0  0
  1  2  1  0
  1  8  1  0
  8  9  1  0
  8 15  1  0
  7 16  1  0
 15 16  1  0
  5 17  1  0
 17 18  1  0
 17 19  1  0
 17 20  1  0
  3 21  1  0
 16 27  1  0
 27 28  2  0
 27 29  1  0
 26 30  1  0
 30 31  1  0
 30 32  1  0
 13 33  1  0
 33 34  1  0
 34 35  1  0
  2  3  2  0
  3  4  1  0
  4  5  2  0
  5  6  1  0
  6  7  2  0
  7  2  1  0
 21 22  2  0
 22 23  1  0
 23 24  2  0
 24 26  1  0
 26 25  2  0
 25 21  1  0
  9 10  2  0
 10 11  1  0
 11 12  2  0
 12 13  1  0
 13 14  2  0
 14  9  1  0
M  END

$$$$
