No_4560-gen_results/8p0m/2024-11-27-11-27-31/
     RDKit          3D

  7  7  0  0  0  0  0  0  0  0999 V2000
  -28.1229   -1.3353   28.4874 O   0  0  0  0  0  0  0  0  0  0  0  0
  -27.0637   -0.8242   28.8687 C   0  0  0  0  0  0  0  0  0  0  0  0
  -27.0246    0.1877   29.7358 C   0  0  0  0  0  0  0  0  0  0  0  0
  -25.8391    0.8513   29.9958 C   0  0  0  0  0  0  0  0  0  0  0  0
  -25.7828   -1.1917   28.3767 N   0  0  0  0  0  0  0  0  0  0  0  0
  -24.5762   -0.6478   28.6454 C   0  0  0  0  0  0  0  0  0  0  0  0
  -24.5611    0.4253   29.4799 C   0  0  0  0  0  0  0  0  0  0  0  0
  1  2  1  0
  2  3  2  0
  3  4  1  0
  4  7  2  0
  7  6  1  0
  6  5  2  0
  5  2  1  0
M  END

$$$$
