No_4404-gen_results/8p0m/2024-11-27-11-27-31/
     RDKit          3D

 29 31  0  0  0  0  0  0  0  0999 V2000
  -28.0162   -0.8135   28.8779 C   0  0  0  0  0  0  0  0  0  0  0  0
  -28.4690   -0.7850   29.8287 C   0  0  0  0  0  0  0  0  0  0  0  0
  -26.5042   -0.7777   28.8766 C   0  0  0  0  0  0  0  0  0  0  0  0
  -25.8103   -0.8531   30.1028 C   0  0  0  0  0  0  0  0  0  0  0  0
  -27.9906   -0.8916   31.2257 C   0  0  0  0  0  0  0  0  0  0  0  0
  -26.6042   -0.8676   31.2652 C   0  0  0  0  0  0  0  0  0  0  0  0
  -30.0739   -0.8360   29.8615 C   0  0  0  0  0  0  0  0  0  0  0  0
  -30.8127   -0.0176   28.8674 Cl  0  0  0  0  0  0  0  0  0  0  0  0
  -30.5214   -0.6701   31.1370 F   0  0  0  0  0  0  0  0  0  0  0  0
  -30.3427   -2.1994   29.6616 F   0  0  0  0  0  0  0  0  0  0  0  0
  -25.6562   -0.7058   27.6686 C   0  0  0  0  0  0  0  0  0  0  0  0
  -25.9189    0.3682   26.7586 C   0  0  0  0  0  0  0  0  0  0  0  0
  -24.9509    0.7901   25.9684 C   0  0  0  0  0  0  0  0  0  0  0  0
  -24.1321    1.7370   25.9658 C   0  0  0  0  0  0  0  0  0  0  0  0
  -24.2134    2.8646   26.5308 C   0  0  0  0  0  0  0  0  0  0  0  0
  -25.5143    3.0727   27.2428 C   0  0  0  0  0  0  0  0  0  0  0  0
  -26.4387    2.3463   27.7357 C   0  0  0  0  0  0  0  0  0  0  0  0
  -26.7461    1.2912   27.2813 C   0  0  0  0  0  0  0  0  0  0  0  0
  -24.4173   -0.8183   30.2088 C   0  0  0  0  0  0  0  0  0  0  0  0
  -23.9163   -0.2058   31.2526 N   0  0  0  0  0  0  0  0  0  0  0  0
  -23.5034   -2.2742   29.5790 Br  0  0  0  0  0  0  0  0  0  0  0  0
  -24.1071   -0.1692   32.4030 C   0  0  0  0  0  0  0  0  0  0  0  0
  -23.0303    0.9242   30.6506 C   0  0  0  0  0  0  0  0  0  0  0  0
  -27.4531    3.1598   28.5770 C   0  0  0  0  0  0  0  0  0  0  0  0
  -28.6844    3.3901   28.1409 C   0  0  0  0  0  0  0  0  0  0  0  0
  -29.6508    3.8292   29.0201 C   0  0  0  0  0  0  0  0  0  0  0  0
  -29.3485    4.0985   30.3731 C   0  0  0  0  0  0  0  0  0  0  0  0
  -27.0907    3.3580   29.9872 C   0  0  0  0  0  0  0  0  0  0  0  0
  -28.0303    3.8541   30.8785 C   0  0  0  0  0  0  0  0  0  0  0  0
  2  7  1  0
  7  8  1  0
  7  9  1  0
  7 10  1  0
  3 11  1  0
 11 12  1  0
 12 13  2  0
 13 14  1  0
 14 15  2  0
 15 16  1  0
 16 17  2  0
 12 18  1  0
 17 18  1  0
  4 19  1  0
 19 20  1  0
 19 21  1  0
 20 22  1  0
 20 23  1  0
 17 24  1  0
 24 25  2  0
 25 26  1  0
 26 27  2  0
 27 29  1  0
 29 28  2  0
 28 24  1  0
  1  2  2  0
  2  5  1  0
  5  6  2  0
  6  4  1  0
  4  3  2  0
  3  1  1  0
M  END

$$$$
