No_4981-gen_results/8p0m/2024-11-27-11-27-31/
     RDKit          3D

 12 12  0  0  0  0  0  0  0  0999 V2000
  -28.1229   -1.3353   28.4874 O   0  0  0  0  0  0  0  0  0  0  0  0
  -27.0637   -0.8242   28.8687 C   0  0  0  0  0  0  0  0  0  0  0  0
  -26.4017   -0.0623   28.6224 C   0  0  0  0  0  0  0  0  0  0  0  0
  -26.2555   -2.0060   30.2108 Cl  0  0  0  0  0  0  0  0  0  0  0  0
  -26.8996    0.9613   27.6371 C   0  0  0  0  0  0  0  0  0  0  0  0
  -26.0779    1.4664   26.7393 C   0  0  0  0  0  0  0  0  0  0  0  0
  -24.6345    1.6472   27.0591 C   0  0  0  0  0  0  0  0  0  0  0  0
  -24.1563    0.9302   28.1727 C   0  0  0  0  0  0  0  0  0  0  0  0
  -22.7443    1.0080   28.5860 C   0  0  0  0  0  0  0  0  0  0  0  0
  -24.9401    0.0558   28.8252 C   0  0  0  0  0  0  0  0  0  0  0  0
  -22.2503    0.0648   29.3251 N   0  0  0  0  0  0  0  0  0  0  0  0
  -21.9061    1.7610   27.9092 O   0  0  0  0  0  0  0  0  0  0  0  0
  1  2  2  0
  2  3  1  0
  2  4  1  0
  8  9  1  0
  9 11  2  0
  9 12  1  0
  3  5  2  0
  5  6  1  0
  6  7  2  0
  7  8  1  0
  8 10  2  0
 10  3  1  0
M  END

$$$$
