No_4188-gen_results/8p0m/2024-11-27-11-27-31/
     RDKit          3D

  6  5  0  0  0  0  0  0  0  0999 V2000
  -28.0162   -0.8135   28.8779 C   0  0  0  0  0  0  0  0  0  0  0  0
  -27.1876   -0.3590   28.4524 N   0  0  0  0  0  0  0  0  0  0  0  0
  -28.9909   -0.3406   29.0518 C   0  0  0  0  0  0  0  0  0  0  0  0
  -25.7526   -0.7542   28.4248 C   0  0  0  0  0  0  0  0  0  0  0  0
  -25.4404   -1.8832   29.1878 C   0  0  0  0  0  0  0  0  0  0  0  0
  -24.0991   -2.4057   29.1813 C   0  0  0  0  0  0  0  0  0  0  0  0
  1  2  2  3
  1  3  1  0
  2  4  1  0
  4  5  2  3
  5  6  1  0
M  END

$$$$
