No_4469-gen_results/8p0m/2024-11-27-11-27-31/
     RDKit          3D

 12 12  0  0  0  0  0  0  0  0999 V2000
  -28.0162   -0.8135   28.8779 C   0  0  0  0  0  0  0  0  0  0  0  0
  -27.0636   -0.1190   28.6079 C   0  0  0  0  0  0  0  0  0  0  0  0
  -25.7923   -0.4302   29.0761 C   0  0  0  0  0  0  0  0  0  0  0  0
  -25.5681   -1.2411   29.7572 C   0  0  0  0  0  0  0  0  0  0  0  0
  -26.6114   -2.1840   30.2439 C   0  0  0  0  0  0  0  0  0  0  0  0
  -27.8191   -1.9189   29.8034 C   0  0  0  0  0  0  0  0  0  0  0  0
  -28.9162   -2.8082   30.2727 C   0  0  0  0  0  0  0  0  0  0  0  0
  -28.7398   -4.0163   30.2622 O   0  0  0  0  0  0  0  0  0  0  0  0
  -29.8924   -2.2783   30.9883 N   0  0  0  0  0  0  0  0  0  0  0  0
  -30.9856   -2.7835   31.4085 C   0  0  0  0  0  0  0  0  0  0  0  0
  -31.4462   -3.6914   31.4002 C   0  0  0  0  0  0  0  0  0  0  0  0
  -32.7471   -4.2050   31.9145 C   0  0  0  0  0  0  0  0  0  0  0  0
  6  7  1  0
  7  8  2  0
  7  9  1  0
  9 10  1  0
 10 11  2  3
 11 12  1  0
  1  2  2  0
  2  3  1  0
  3  4  2  0
  4  5  1  0
  5  6  2  0
  6  1  1  0
M  END

$$$$
