No_4994-gen_results/8p0m/2024-11-27-11-27-31/
     RDKit          3D

 19 20  0  0  0  0  0  0  0  0999 V2000
  -28.1493   -0.8198   28.9079 Cl  0  0  0  0  0  0  0  0  0  0  0  0
  -27.8339    0.4961   29.0598 C   0  0  0  0  0  0  0  0  0  0  0  0
  -27.7903    1.1418   28.0451 F   0  0  0  0  0  0  0  0  0  0  0  0
  -26.4542    0.6688   29.7268 C   0  0  0  0  0  0  0  0  0  0  0  0
  -28.6845    1.1302   29.8976 F   0  0  0  0  0  0  0  0  0  0  0  0
  -25.3924    0.0137   29.1732 C   0  0  0  0  0  0  0  0  0  0  0  0
  -25.0355   -1.1869   29.7857 C   0  0  0  0  0  0  0  0  0  0  0  0
  -23.9718   -1.9770   29.1646 C   0  0  0  0  0  0  0  0  0  0  0  0
  -23.0007   -1.2809   28.4299 C   0  0  0  0  0  0  0  0  0  0  0  0
  -23.2151    0.0842   28.1283 C   0  0  0  0  0  0  0  0  0  0  0  0
  -24.4209    0.7159   28.4528 C   0  0  0  0  0  0  0  0  0  0  0  0
  -24.6324    2.0632   27.9751 C   0  0  0  0  0  0  0  0  0  0  0  0
  -24.2204    2.5034   26.6851 C   0  0  0  0  0  0  0  0  0  0  0  0
  -25.0064    3.1328   28.9136 C   0  0  0  0  0  0  0  0  0  0  0  0
  -25.1620    2.9723   30.1699 O   0  0  0  0  0  0  0  0  0  0  0  0
  -25.1818    4.3746   28.4158 N   0  0  0  0  0  0  0  0  0  0  0  0
  -25.0227    4.7636   27.0767 C   0  0  0  0  0  0  0  0  0  0  0  0
  -23.8337    1.5836   25.8095 N   0  0  0  0  0  0  0  0  0  0  0  0
  -24.5141    3.8204   26.1881 C   0  0  0  0  0  0  0  0  0  0  0  0
  1  2  1  0
  2  3  1  0
  2  4  1  0
  2  5  1  0
  4  6  1  0
 11 12  1  0
 14 15  1  0
 13 18  1  0
  6  7  2  0
  7  8  1  0
  8  9  2  0
  9 10  1  0
 10 11  2  0
 11  6  1  0
 12 13  2  0
 13 19  1  0
 19 17  2  0
 17 16  1  0
 16 14  2  0
 14 12  1  0
M  END

$$$$
