No_4276-gen_results/8p0m/2024-11-27-11-27-31/
     RDKit          3D

 33 36  0  0  0  0  0  0  0  0999 V2000
  -28.0162   -0.8135   28.8779 C   0  0  0  0  0  0  0  0  0  0  0  0
  -27.0636   -0.1190   28.6079 C   0  0  0  0  0  0  0  0  0  0  0  0
  -25.7923   -0.4302   29.0761 C   0  0  0  0  0  0  0  0  0  0  0  0
  -24.5456    0.3494   28.8225 C   0  0  0  0  0  0  0  0  0  0  0  0
  -24.6586    1.4196   27.8878 C   0  0  0  0  0  0  0  0  0  0  0  0
  -25.9471    1.6811   27.3792 C   0  0  0  0  0  0  0  0  0  0  0  0
  -27.0439    0.9739   27.6871 C   0  0  0  0  0  0  0  0  0  0  0  0
  -28.5424   -0.5987   30.0410 O   0  0  0  0  0  0  0  0  0  0  0  0
  -23.4525    2.1401   27.6029 C   0  0  0  0  0  0  0  0  0  0  0  0
  -22.2680    1.7337   28.0909 N   0  0  0  0  0  0  0  0  0  0  0  0
  -23.4725    3.0214   26.5803 N   0  0  0  0  0  0  0  0  0  0  0  0
  -28.2515    0.1745   30.7710 C   0  0  0  0  0  0  0  0  0  0  0  0
  -28.6302   -0.1000   32.1841 C   0  0  0  0  0  0  0  0  0  0  0  0
  -28.2886    0.8287   33.2217 C   0  0  0  0  0  0  0  0  0  0  0  0
  -27.4505    1.3560   30.8067 C   0  0  0  0  0  0  0  0  0  0  0  0
  -27.2163    2.2515   31.7940 C   0  0  0  0  0  0  0  0  0  0  0  0
  -27.6079    1.9627   33.0731 C   0  0  0  0  0  0  0  0  0  0  0  0
  -26.3785    3.4827   31.5555 C   0  0  0  0  0  0  0  0  0  0  0  0
  -25.4421    3.7547   32.1346 C   0  0  0  0  0  0  0  0  0  0  0  0
  -24.7004    5.0279   31.8922 C   0  0  0  0  0  0  0  0  0  0  0  0
  -25.1928    5.8987   30.9485 C   0  0  0  0  0  0  0  0  0  0  0  0
  -26.9144    4.3898   30.5157 C   0  0  0  0  0  0  0  0  0  0  0  0
  -26.2807    5.5385   30.2304 C   0  0  0  0  0  0  0  0  0  0  0  0
  -28.3146    1.4195   27.0710 C   0  0  0  0  0  0  0  0  0  0  0  0
  -29.1152    1.9299   27.4581 C   0  0  0  0  0  0  0  0  0  0  0  0
  -30.3912    2.3265   26.9585 C   0  0  0  0  0  0  0  0  0  0  0  0
  -28.4889    0.8729   25.7236 C   0  0  0  0  0  0  0  0  0  0  0  0
  -29.6251    1.1249   25.0210 C   0  0  0  0  0  0  0  0  0  0  0  0
  -30.5929    1.9151   25.6378 C   0  0  0  0  0  0  0  0  0  0  0  0
  -26.7613    6.4249   29.1422 C   0  0  0  0  0  0  0  0  0  0  0  0
  -27.6968    6.9933   29.1377 O   0  0  0  0  0  0  0  0  0  0  0  0
  -25.8720    6.4819   28.0901 O   0  0  0  0  0  0  0  0  0  0  0  0
  -27.2600   -0.0780   24.9272 Cl  0  0  0  0  0  0  0  0  0  0  0  0
  1  2  1  0
  1  8  1  0
  5  9  1  0
  9 10  2  0
  9 11  1  0
  8 12  1  0
 16 18  1  0
  7 24  1  0
 23 30  1  0
 30 31  1  0
 30 32  2  0
 27 33  1  0
 12 13  2  0
 13 14  1  0
 14 17  2  0
 17 16  1  0
 16 15  2  0
 15 12  1  0
  2  3  2  0
  3  4  1  0
  4  5  2  0
  5  6  1  0
  6  7  2  0
  7  2  1  0
 24 25  2  0
 25 26  1  0
 26 29  2  0
 29 28  1  0
 28 27  2  0
 27 24  1  0
 18 19  2  0
 19 20  1  0
 20 21  2  0
 21 23  1  0
 23 22  2  0
 22 18  1  0
M  END

$$$$
