No_4158-gen_results/8p0m/2024-11-27-11-27-31/
     RDKit          3D

 15 16  0  0  0  0  0  0  0  0999 V2000
  -28.0162   -0.8135   28.8779 C   0  0  0  0  0  0  0  0  0  0  0  0
  -28.4690   -0.7850   29.8287 C   0  0  0  0  0  0  0  0  0  0  0  0
  -27.1356    0.2359   28.5352 C   0  0  0  0  0  0  0  0  0  0  0  0
  -26.8745    1.2825   29.3982 C   0  0  0  0  0  0  0  0  0  0  0  0
  -28.3613    0.1987   30.9244 C   0  0  0  0  0  0  0  0  0  0  0  0
  -27.5277    1.2234   30.6356 C   0  0  0  0  0  0  0  0  0  0  0  0
  -26.4877    0.2566   27.3533 F   0  0  0  0  0  0  0  0  0  0  0  0
  -29.0652    0.1000   32.2285 C   0  0  0  0  0  0  0  0  0  0  0  0
  -28.5203    0.6621   33.2022 C   0  0  0  0  0  0  0  0  0  0  0  0
  -27.6034    1.8560   32.9813 C   0  0  0  0  0  0  0  0  0  0  0  0
  -26.9841    2.0175   31.7591 C   0  0  0  0  0  0  0  0  0  0  0  0
  -26.0223    3.0793   31.5706 C   0  0  0  0  0  0  0  0  0  0  0  0
  -24.8664    2.5810   31.3427 F   0  0  0  0  0  0  0  0  0  0  0  0
  -25.8777    3.8530   32.6885 F   0  0  0  0  0  0  0  0  0  0  0  0
  -26.4556    3.8636   30.6052 F   0  0  0  0  0  0  0  0  0  0  0  0
  3  7  1  0
 11 12  1  0
 12 13  1  0
 12 14  1  0
 12 15  1  0
  6 11  2  0
 11 10  1  0
 10  9  2  0
  9  8  1  0
  8  5  2  0
  1  2  2  0
  2  5  1  0
  5  6  1  0
  6  4  1  0
  4  3  2  0
  3  1  1  0
M  END

$$$$
