No_4625-gen_results/8p0m/2024-11-27-11-27-31/
     RDKit          3D

 16 18  0  0  0  0  0  0  0  0999 V2000
  -28.0162   -0.8135   28.8779 C   0  0  0  0  0  0  0  0  0  0  0  0
  -27.0636   -0.1190   28.6079 C   0  0  0  0  0  0  0  0  0  0  0  0
  -25.7923   -0.4302   29.0761 C   0  0  0  0  0  0  0  0  0  0  0  0
  -25.5756   -1.5654   29.9363 C   0  0  0  0  0  0  0  0  0  0  0  0
  -26.7354   -2.3004   30.2173 C   0  0  0  0  0  0  0  0  0  0  0  0
  -27.9184   -1.9537   29.7629 C   0  0  0  0  0  0  0  0  0  0  0  0
  -27.1057    1.1023   27.7593 C   0  0  0  0  0  0  0  0  0  0  0  0
  -26.2345    1.4562   27.0152 N   0  0  0  0  0  0  0  0  0  0  0  0
  -28.2185    1.7527   27.7182 O   0  0  0  0  0  0  0  0  0  0  0  0
  -24.8600    0.9268   27.0186 C   0  0  0  0  0  0  0  0  0  0  0  0
  -24.1653    1.1170   28.0588 C   0  0  0  0  0  0  0  0  0  0  0  0
  -24.4441    0.1204   28.7920 C   0  0  0  0  0  0  0  0  0  0  0  0
  -23.1979   -0.5479   29.3778 C   0  0  0  0  0  0  0  0  0  0  0  0
  -22.9071   -1.4045   30.0314 C   0  0  0  0  0  0  0  0  0  0  0  0
  -24.2970   -2.1394   30.5159 C   0  0  0  0  0  0  0  0  0  0  0  0
  -26.5189    2.3653   25.9356 C   0  0  0  0  0  0  0  0  0  0  0  0
  2  7  1  0
  7  8  1  0
  7  9  2  0
  8 10  1  0
 10 11  2  0
 11 12  1  0
  8 16  1  0
  1  2  2  0
  2  3  1  0
  4  5  1  0
  5  6  2  0
  6  1  1  0
  3  4  2  0
  4 15  1  0
 15 14  2  0
 14 13  1  0
 13 12  2  0
 12  3  1  0
M  END

$$$$
