No_4566-gen_results/8p0m/2024-11-27-11-27-31/
     RDKit          3D

 35 37  0  0  0  0  0  0  0  0999 V2000
  -28.0162   -0.8135   28.8779 C   0  0  0  0  0  0  0  0  0  0  0  0
  -28.4690   -0.7850   29.8287 C   0  0  0  0  0  0  0  0  0  0  0  0
  -27.0871    0.2903   28.6377 C   0  0  0  0  0  0  0  0  0  0  0  0
  -26.2516    0.4114   27.4223 C   0  0  0  0  0  0  0  0  0  0  0  0
  -28.3913    0.1041   30.9805 C   0  0  0  0  0  0  0  0  0  0  0  0
  -27.5332    1.1666   30.7866 C   0  0  0  0  0  0  0  0  0  0  0  0
  -26.8281    1.2557   29.6454 C   0  0  0  0  0  0  0  0  0  0  0  0
  -25.7856    1.5766   27.1547 N   0  0  0  0  0  0  0  0  0  0  0  0
  -24.9255    2.1825   27.9538 C   0  0  0  0  0  0  0  0  0  0  0  0
  -23.8309    1.9491   28.2348 C   0  0  0  0  0  0  0  0  0  0  0  0
  -22.9286    1.2827   27.3347 C   0  0  0  0  0  0  0  0  0  0  0  0
  -21.5501    1.0153   27.7085 C   0  0  0  0  0  0  0  0  0  0  0  0
  -21.0791    0.1685   28.5966 C   0  0  0  0  0  0  0  0  0  0  0  0
  -22.0079   -0.5654   29.3691 C   0  0  0  0  0  0  0  0  0  0  0  0
  -25.8342    3.0497   28.9625 C   0  0  0  0  0  0  0  0  0  0  0  0
  -26.2193    2.5512   29.6156 C   0  0  0  0  0  0  0  0  0  0  0  0
  -22.7514   -1.7096   29.0091 C   0  0  0  0  0  0  0  0  0  0  0  0
  -23.7335   -2.2416   29.8158 C   0  0  0  0  0  0  0  0  0  0  0  0
  -24.6904   -1.5095   30.0928 C   0  0  0  0  0  0  0  0  0  0  0  0
  -25.7313   -2.0890   30.9445 C   0  0  0  0  0  0  0  0  0  0  0  0
  -26.4571    2.4307   26.2602 C   0  0  0  0  0  0  0  0  0  0  0  0
  -26.2967   -3.3147   30.4913 C   0  0  0  0  0  0  0  0  0  0  0  0
  -25.4631   -4.1225   29.5560 C   0  0  0  0  0  0  0  0  0  0  0  0
  -24.4252   -3.4920   28.8943 C   0  0  0  0  0  0  0  0  0  0  0  0
  -25.9530   -5.2331   29.1407 O   0  0  0  0  0  0  0  0  0  0  0  0
  -25.6612    4.5057   28.6338 C   0  0  0  0  0  0  0  0  0  0  0  0
  -25.1715    4.9875   27.6922 O   0  0  0  0  0  0  0  0  0  0  0  0
  -26.2231    5.4076   29.5813 O   0  0  0  0  0  0  0  0  0  0  0  0
  -25.7476   -0.5821   26.8907 O   0  0  0  0  0  0  0  0  0  0  0  0
  -26.1459    6.7185   29.3974 C   0  0  0  0  0  0  0  0  0  0  0  0
  -25.4556    7.4141   30.3280 C   0  0  0  0  0  0  0  0  0  0  0  0
  -25.2853    6.9028   31.4496 O   0  0  0  0  0  0  0  0  0  0  0  0
  -24.2112    7.1099   32.2474 C   0  0  0  0  0  0  0  0  0  0  0  0
  -23.8177    5.9978   33.0914 C   0  0  0  0  0  0  0  0  0  0  0  0
  -24.7104    5.3400   33.5657 O   0  0  0  0  0  0  0  0  0  0  0  0
  3  4  1  0
  4  8  1  0
  8  9  1  0
  9 10  2  3
 10 11  1  0
 11 12  1  0
 12 13  2  3
 13 14  1  0
  9 15  1  0
  7 16  1  0
 15 16  2  0
 14 17  2  3
 17 18  1  0
  8 21  1  0
 23 25  1  0
 15 26  1  0
 26 27  2  0
 26 28  1  0
  4 29  2  0
 28 30  1  0
 30 31  1  0
 31 32  1  0
 32 33  1  0
 33 34  2  0
 34 35  2  0
 18 19  2  0
 19 20  1  0
 20 22  2  0
 22 23  1  0
 23 24  2  0
 24 18  1  0
  1  2  2  0
  2  5  1  0
  5  6  2  0
  6  7  1  0
  7  3  2  0
  3  1  1  0
M  END

$$$$
