No_4531-gen_results/8p0m/2024-11-27-11-27-31/
     RDKit          3D

 18 20  0  0  0  0  0  0  0  0999 V2000
  -28.0162   -0.8135   28.8779 C   0  0  0  0  0  0  0  0  0  0  0  0
  -28.4690   -0.7850   29.8287 C   0  0  0  0  0  0  0  0  0  0  0  0
  -28.1816    0.4277   28.1134 C   0  0  0  0  0  0  0  0  0  0  0  0
  -27.4498    0.6435   26.8500 C   0  0  0  0  0  0  0  0  0  0  0  0
  -26.1815    0.0357   26.7145 C   0  0  0  0  0  0  0  0  0  0  0  0
  -25.7800   -0.9326   27.6938 C   0  0  0  0  0  0  0  0  0  0  0  0
  -26.5568   -1.2134   28.7413 C   0  0  0  0  0  0  0  0  0  0  0  0
  -29.6470   -0.2239   30.2207 C   0  0  0  0  0  0  0  0  0  0  0  0
  -30.0496    0.8403   29.3478 C   0  0  0  0  0  0  0  0  0  0  0  0
  -29.3564    1.1395   28.2109 C   0  0  0  0  0  0  0  0  0  0  0  0
  -26.1550   -2.1374   29.7831 C   0  0  0  0  0  0  0  0  0  0  0  0
  -26.9872   -2.5626   30.6872 N   0  0  0  0  0  0  0  0  0  0  0  0
  -28.1543   -1.9263   30.8688 C   0  0  0  0  0  0  0  0  0  0  0  0
  -25.0793   -2.8740   29.6220 F   0  0  0  0  0  0  0  0  0  0  0  0
  -28.9064   -2.3872   31.8134 O   0  0  0  0  0  0  0  0  0  0  0  0
  -25.1830    0.3498   25.4177 Cl  0  0  0  0  0  0  0  0  0  0  0  0
  -31.2383    1.4784   29.6212 F   0  0  0  0  0  0  0  0  0  0  0  0
  -27.7989    1.5573   26.0262 F   0  0  0  0  0  0  0  0  0  0  0  0
  7 11  1  0
  2 13  1  0
 12 13  1  0
 11 14  1  0
 13 15  2  0
  5 16  1  0
  9 17  1  0
  4 18  1  0
 11 12  1  0
  1  2  1  0
  2  8  2  0
  8  9  1  0
  9 10  2  0
 10  3  1  0
  1  3  1  0
  3  4  2  0
  4  5  1  0
  5  6  2  0
  6  7  1  0
  7  1  2  0
M  END

$$$$
