No_495-gen_results/8p0m/2024-11-27-11-27-31/
     RDKit          3D

 15 16  0  0  0  0  0  0  0  0999 V2000
  -28.0162   -0.8135   28.8779 C   0  0  0  0  0  0  0  0  0  0  0  0
  -28.4690   -0.7850   29.8287 C   0  0  0  0  0  0  0  0  0  0  0  0
  -26.5042   -0.7777   28.8766 C   0  0  0  0  0  0  0  0  0  0  0  0
  -25.8103   -0.8531   30.1028 C   0  0  0  0  0  0  0  0  0  0  0  0
  -27.9906   -0.8916   31.2257 C   0  0  0  0  0  0  0  0  0  0  0  0
  -26.6042   -0.8676   31.2652 C   0  0  0  0  0  0  0  0  0  0  0  0
  -30.0739   -0.8360   29.8615 C   0  0  0  0  0  0  0  0  0  0  0  0
  -30.6891   -1.6554   30.2229 O   0  0  0  0  0  0  0  0  0  0  0  0
  -30.6022    0.4333   29.5984 N   0  0  0  0  0  0  0  0  0  0  0  0
  -29.9094    1.5925   29.2464 C   0  0  0  0  0  0  0  0  0  0  0  0
  -29.9877    2.2437   28.2672 C   0  0  0  0  0  0  0  0  0  0  0  0
  -29.2304    3.4780   27.9526 C   0  0  0  0  0  0  0  0  0  0  0  0
  -28.2330    3.8571   28.8928 C   0  0  0  0  0  0  0  0  0  0  0  0
  -28.8307    1.9573   30.1956 C   0  0  0  0  0  0  0  0  0  0  0  0
  -28.0999    3.1316   30.0409 C   0  0  0  0  0  0  0  0  0  0  0  0
  2  7  1  0
  7  8  2  0
  7  9  1  0
  9 10  1  0
 10 11  2  0
 11 12  1  0
 12 13  2  0
 13 15  1  0
 15 14  2  0
 14 10  1  0
  1  2  2  0
  2  5  1  0
  5  6  2  0
  6  4  1  0
  4  3  2  0
  3  1  1  0
M  END

$$$$
