No_4474-gen_results/8p0m/2024-11-27-11-27-31/
     RDKit          3D

 18 19  0  0  0  0  0  0  0  0999 V2000
  -28.0162   -0.8135   28.8779 C   0  0  0  0  0  0  0  0  0  0  0  0
  -28.4690   -0.7850   29.8287 C   0  0  0  0  0  0  0  0  0  0  0  0
  -26.5455   -0.8762   28.8500 C   0  0  0  0  0  0  0  0  0  0  0  0
  -25.8041   -1.0324   30.0571 C   0  0  0  0  0  0  0  0  0  0  0  0
  -27.9437   -0.9869   31.2075 C   0  0  0  0  0  0  0  0  0  0  0  0
  -26.5825   -1.0386   31.2231 C   0  0  0  0  0  0  0  0  0  0  0  0
  -29.9267   -0.7257   29.8772 O   0  0  0  0  0  0  0  0  0  0  0  0
  -30.7101   -1.5564   30.3394 C   0  0  0  0  0  0  0  0  0  0  0  0
  -24.3644   -1.0909   30.0836 C   0  0  0  0  0  0  0  0  0  0  0  0
  -23.8537    0.0939   30.2395 F   0  0  0  0  0  0  0  0  0  0  0  0
  -23.8971   -1.8271   31.1256 F   0  0  0  0  0  0  0  0  0  0  0  0
  -23.8254   -1.6277   28.9723 F   0  0  0  0  0  0  0  0  0  0  0  0
  -31.7498   -1.8095   29.5736 C   0  0  0  0  0  0  0  0  0  0  0  0
  -32.5808   -2.9684   29.8138 C   0  0  0  0  0  0  0  0  0  0  0  0
  -33.5217   -3.3822   28.9121 C   0  0  0  0  0  0  0  0  0  0  0  0
  -33.7412   -2.6390   27.7017 C   0  0  0  0  0  0  0  0  0  0  0  0
  -32.9314   -1.5495   27.4159 C   0  0  0  0  0  0  0  0  0  0  0  0
  -31.9162   -1.1907   28.2908 C   0  0  0  0  0  0  0  0  0  0  0  0
  2  7  1  0
  7  8  1  0
  4  9  1  0
  9 10  1  0
  9 11  1  0
  9 12  1  0
  8 13  1  0
 13 14  2  0
 14 15  1  0
 15 16  2  0
 16 17  1  0
 17 18  2  0
 18 13  1  0
  1  2  2  0
  2  5  1  0
  5  6  2  0
  6  4  1  0
  4  3  2  0
  3  1  1  0
M  END

$$$$
