No_4767-gen_results/8p0m/2024-11-27-11-27-31/
     RDKit          3D

 22 24  0  0  0  0  0  0  0  0999 V2000
  -28.0162   -0.8135   28.8779 C   0  0  0  0  0  0  0  0  0  0  0  0
  -28.4690   -0.7850   29.8287 C   0  0  0  0  0  0  0  0  0  0  0  0
  -28.1816    0.4277   28.1134 C   0  0  0  0  0  0  0  0  0  0  0  0
  -28.9841    1.4155   28.5154 C   0  0  0  0  0  0  0  0  0  0  0  0
  -29.3802    0.1384   30.4612 C   0  0  0  0  0  0  0  0  0  0  0  0
  -29.5415    1.2736   29.7242 C   0  0  0  0  0  0  0  0  0  0  0  0
  -27.5429    0.6374   26.7442 C   0  0  0  0  0  0  0  0  0  0  0  0
  -28.1415    0.4408   25.6716 N   0  0  0  0  0  0  0  0  0  0  0  0
  -26.0672    0.7947   26.7125 C   0  0  0  0  0  0  0  0  0  0  0  0
  -25.2092    0.5339   27.7280 C   0  0  0  0  0  0  0  0  0  0  0  0
  -24.2151    1.0567   28.1327 C   0  0  0  0  0  0  0  0  0  0  0  0
  -23.4895    1.8485   27.0763 C   0  0  0  0  0  0  0  0  0  0  0  0
  -24.1953    2.1728   25.9193 C   0  0  0  0  0  0  0  0  0  0  0  0
  -25.5395    1.7816   25.7793 C   0  0  0  0  0  0  0  0  0  0  0  0
  -22.1202    2.2863   27.3981 C   0  0  0  0  0  0  0  0  0  0  0  0
  -27.8008    0.5074   24.5209 C   0  0  0  0  0  0  0  0  0  0  0  0
  -29.6484    0.1990   25.7933 C   0  0  0  0  0  0  0  0  0  0  0  0
  -30.2833   -0.2000   24.6450 C   0  0  0  0  0  0  0  0  0  0  0  0
  -28.6552    0.2377   23.4786 C   0  0  0  0  0  0  0  0  0  0  0  0
  -29.8114   -0.0419   23.4642 C   0  0  0  0  0  0  0  0  0  0  0  0
  -21.3780    1.4531   26.8236 F   0  0  0  0  0  0  0  0  0  0  0  0
  -21.9421    2.1058   28.7815 F   0  0  0  0  0  0  0  0  0  0  0  0
  3  7  1  0
  7  8  1  0
  7  9  1  0
 12 15  1  0
  8 16  1  0
  8 17  1  0
 18 20  1  0
 19 20  1  0
 15 21  1  0
 15 22  1  0
 16 19  1  0
 18 17  1  0
  9 10  2  0
 10 11  1  0
 11 12  2  0
 12 13  1  0
 13 14  2  0
 14  9  1  0
  1  2  2  0
  2  5  1  0
  5  6  2  0
  6  4  1  0
  4  3  2  0
  3  1  1  0
M  END

$$$$
