No_4374-gen_results/8p0m/2024-11-27-11-27-31/
     RDKit          3D

 23 25  0  0  0  0  0  0  0  0999 V2000
  -28.0162   -0.8135   28.8779 C   0  0  0  0  0  0  0  0  0  0  0  0
  -27.0636   -0.1190   28.6079 C   0  0  0  0  0  0  0  0  0  0  0  0
  -25.7647   -0.3897   29.0360 C   0  0  0  0  0  0  0  0  0  0  0  0
  -25.5296   -1.5302   29.9014 C   0  0  0  0  0  0  0  0  0  0  0  0
  -26.6888   -2.2893   30.1810 C   0  0  0  0  0  0  0  0  0  0  0  0
  -27.8727   -1.9508   29.7373 C   0  0  0  0  0  0  0  0  0  0  0  0
  -29.0016   -2.8142   30.1793 C   0  0  0  0  0  0  0  0  0  0  0  0
  -30.1410   -2.4192   30.1450 N   0  0  0  0  0  0  0  0  0  0  0  0
  -28.7175   -4.0960   30.3007 O   0  0  0  0  0  0  0  0  0  0  0  0
  -31.3070   -3.2860   30.4452 C   0  0  0  0  0  0  0  0  0  0  0  0
  -24.5378    0.4081   28.6854 C   0  0  0  0  0  0  0  0  0  0  0  0
  -23.3336    0.0994   29.1671 C   0  0  0  0  0  0  0  0  0  0  0  0
  -23.1415   -0.9846   30.0005 C   0  0  0  0  0  0  0  0  0  0  0  0
  -24.2563   -1.8226   30.3865 C   0  0  0  0  0  0  0  0  0  0  0  0
  -22.1454    0.8633   28.7742 C   0  0  0  0  0  0  0  0  0  0  0  0
  -21.8569    1.1111   27.7134 O   0  0  0  0  0  0  0  0  0  0  0  0
  -21.3479    1.3133   29.8079 O   0  0  0  0  0  0  0  0  0  0  0  0
  -32.3659   -2.6176   30.9109 C   0  0  0  0  0  0  0  0  0  0  0  0
  -32.7444   -2.6638   31.9963 C   0  0  0  0  0  0  0  0  0  0  0  0
  -33.3867   -2.3907   29.8183 C   0  0  0  0  0  0  0  0  0  0  0  0
  -33.9673   -1.9767   32.5438 C   0  0  0  0  0  0  0  0  0  0  0  0
  -34.6112   -1.7173   30.2510 C   0  0  0  0  0  0  0  0  0  0  0  0
  -34.8946   -1.6082   31.5761 C   0  0  0  0  0  0  0  0  0  0  0  0
  6  7  1  0
  7  8  1  0
  7  9  2  0
  8 10  1  0
 12 15  1  0
 15 16  2  0
 15 17  1  0
 10 18  1  0
  1  2  2  0
  2  3  1  0
  4  5  1  0
  5  6  2  0
  6  1  1  0
 18 19  2  0
 19 21  1  0
 21 23  2  0
 23 22  1  0
 22 20  2  0
 20 18  1  0
  3  4  2  0
  4 14  1  0
 14 13  2  0
 13 12  1  0
 12 11  2  0
 11  3  1  0
M  END

$$$$
