No_4396-gen_results/8p0m/2024-11-27-11-27-31/
     RDKit          3D

 23 24  0  0  0  0  0  0  0  0999 V2000
  -28.0162   -0.8135   28.8779 C   0  0  0  0  0  0  0  0  0  0  0  0
  -27.0636   -0.1189   28.6079 C   0  0  0  0  0  0  0  0  0  0  0  0
  -25.7923   -0.4302   29.0761 C   0  0  0  0  0  0  0  0  0  0  0  0
  -24.5456    0.3494   28.8225 C   0  0  0  0  0  0  0  0  0  0  0  0
  -24.6586    1.4196   27.8878 C   0  0  0  0  0  0  0  0  0  0  0  0
  -25.9471    1.6811   27.3792 C   0  0  0  0  0  0  0  0  0  0  0  0
  -27.0439    0.9739   27.6871 C   0  0  0  0  0  0  0  0  0  0  0  0
  -28.6597   -0.4600   30.2006 C   0  0  0  0  0  0  0  0  0  0  0  0
  -29.7497   -1.2486   30.6773 C   0  0  0  0  0  0  0  0  0  0  0  0
  -23.2584    2.2741   27.5441 Cl  0  0  0  0  0  0  0  0  0  0  0  0
  -30.0794   -2.2425   29.9404 C   0  0  0  0  0  0  0  0  0  0  0  0
  -31.2494   -2.9748   30.4825 C   0  0  0  0  0  0  0  0  0  0  0  0
  -31.6703   -4.1226   29.7329 C   0  0  0  0  0  0  0  0  0  0  0  0
  -30.7616   -4.6711   29.3298 F   0  0  0  0  0  0  0  0  0  0  0  0
  -32.3606   -4.9662   30.5461 F   0  0  0  0  0  0  0  0  0  0  0  0
  -32.5033   -3.7233   28.7454 F   0  0  0  0  0  0  0  0  0  0  0  0
  -30.9513   -3.3656   31.7571 F   0  0  0  0  0  0  0  0  0  0  0  0
  -32.2889   -2.1057   30.6185 F   0  0  0  0  0  0  0  0  0  0  0  0
  -29.0052    1.0734   30.2024 C   0  0  0  0  0  0  0  0  0  0  0  0
  -27.4946   -0.6702   31.2898 C   0  0  0  0  0  0  0  0  0  0  0  0
  -28.4438    1.9331   30.9155 C   0  0  0  0  0  0  0  0  0  0  0  0
  -26.9629    0.3369   32.1285 C   0  0  0  0  0  0  0  0  0  0  0  0
  -27.4463    1.6600   31.9281 C   0  0  0  0  0  0  0  0  0  0  0  0
  1  2  1  0
  1  8  1  0
  8  9  1  0
  5 10  1  0
  9 11  2  3
 11 12  1  0
 12 13  1  0
 13 14  1  0
 13 15  1  0
 13 16  1  0
 12 17  1  0
 12 18  1  0
  8 19  1  0
  8 20  1  0
 21 23  1  0
 22 23  1  0
 19 21  1  0
 22 20  1  0
  2  3  2  0
  3  4  1  0
  4  5  2  0
  5  6  1  0
  6  7  2  0
  7  2  1  0
M  END

$$$$
