No_4414-gen_results/8p0m/2024-11-27-11-27-31/
     RDKit          3D

 11 12  0  0  0  0  0  0  0  0999 V2000
  -28.0162   -0.8135   28.8779 C   0  0  0  0  0  0  0  0  0  0  0  0
  -27.0636   -0.1189   28.6079 C   0  0  0  0  0  0  0  0  0  0  0  0
  -26.9716    0.7139   27.5060 C   0  0  0  0  0  0  0  0  0  0  0  0
  -28.1053    0.7744   26.6421 C   0  0  0  0  0  0  0  0  0  0  0  0
  -29.2008    0.1044   27.0527 C   0  0  0  0  0  0  0  0  0  0  0  0
  -29.2096   -0.6029   28.1853 C   0  0  0  0  0  0  0  0  0  0  0  0
  -30.5651    0.2430   26.0493 Cl  0  0  0  0  0  0  0  0  0  0  0  0
  -25.6106   -0.1345   29.2364 C   0  0  0  0  0  0  0  0  0  0  0  0
  -24.6433    0.4374   28.8232 N   0  0  0  0  0  0  0  0  0  0  0  0
  -24.6413    1.2841   27.7249 C   0  0  0  0  0  0  0  0  0  0  0  0
  -25.7320    1.3808   27.0071 C   0  0  0  0  0  0  0  0  0  0  0  0
  5  7  1  0
  1  2  2  0
  3  4  2  0
  4  5  1  0
  5  6  2  0
  6  1  1  0
  2  3  1  0
  3 11  1  0
 11 10  2  0
 10  9  1  0
  9  8  2  0
  8  2  1  0
M  END

$$$$
