No_4015-gen_results/8p0m/2024-11-27-11-27-31/
     RDKit          3D

 19 20  0  0  0  0  0  0  0  0999 V2000
  -28.0162   -0.8135   28.8779 C   0  0  0  0  0  0  0  0  0  0  0  0
  -27.0636   -0.1189   28.6079 C   0  0  0  0  0  0  0  0  0  0  0  0
  -27.0010    0.6913   27.4910 C   0  0  0  0  0  0  0  0  0  0  0  0
  -25.8548    1.4825   27.0830 C   0  0  0  0  0  0  0  0  0  0  0  0
  -24.6901    1.4526   27.8807 C   0  0  0  0  0  0  0  0  0  0  0  0
  -24.7379    0.6010   29.0416 C   0  0  0  0  0  0  0  0  0  0  0  0
  -25.8234   -0.1688   29.3887 C   0  0  0  0  0  0  0  0  0  0  0  0
  -28.7125   -0.4634   30.1695 C   0  0  0  0  0  0  0  0  0  0  0  0
  -28.7732    0.5526   30.5986 N   0  0  0  0  0  0  0  0  0  0  0  0
  -29.1957    0.8122   31.8836 C   0  0  0  0  0  0  0  0  0  0  0  0
  -28.9077   -1.5389   30.9628 O   0  0  0  0  0  0  0  0  0  0  0  0
  -23.5144    2.2246   27.5881 C   0  0  0  0  0  0  0  0  0  0  0  0
  -22.6231    2.3144   28.5505 N   0  0  0  0  0  0  0  0  0  0  0  0
  -23.1780    2.4451   26.3729 O   0  0  0  0  0  0  0  0  0  0  0  0
  -28.2937    0.7806   26.4219 Cl  0  0  0  0  0  0  0  0  0  0  0  0
  -29.4607    2.2011   32.2179 C   0  0  0  0  0  0  0  0  0  0  0  0
  -29.2541    3.1144   31.7799 C   0  0  0  0  0  0  0  0  0  0  0  0
  -28.6224    2.9578   30.3647 C   0  0  0  0  0  0  0  0  0  0  0  0
  -28.4564    1.7718   29.8496 C   0  0  0  0  0  0  0  0  0  0  0  0
  1  2  1  0
  1  8  1  0
  8  9  1  0
  9 10  1  0
  8 11  2  0
  5 12  1  0
 12 13  1  0
 12 14  2  0
  3 15  1  0
 16 17  1  0
  9 19  1  0
 18 19  1  0
 10 16  1  0
 17 18  1  0
  2  3  2  0
  3  4  1  0
  4  5  2  0
  5  6  1  0
  6  7  2  0
  7  2  1  0
M  END

$$$$
