No_4735-gen_results/8p0m/2024-11-27-11-27-31/
     RDKit          3D

 18 19  0  0  0  0  0  0  0  0999 V2000
  -28.0162   -0.8135   28.8779 C   0  0  0  0  0  0  0  0  0  0  0  0
  -27.0636   -0.1189   28.6079 C   0  0  0  0  0  0  0  0  0  0  0  0
  -25.7647   -0.3897   29.0360 C   0  0  0  0  0  0  0  0  0  0  0  0
  -24.5516    0.4058   28.7646 C   0  0  0  0  0  0  0  0  0  0  0  0
  -24.6957    1.4480   27.7988 C   0  0  0  0  0  0  0  0  0  0  0  0
  -25.9755    1.7250   27.3077 C   0  0  0  0  0  0  0  0  0  0  0  0
  -27.0718    1.0134   27.6535 C   0  0  0  0  0  0  0  0  0  0  0  0
  -29.2261   -0.0677   29.3149 C   0  0  0  0  0  0  0  0  0  0  0  0
  -29.9074   -0.3248   30.1570 C   0  0  0  0  0  0  0  0  0  0  0  0
  -29.7086   -0.9393   30.9786 F   0  0  0  0  0  0  0  0  0  0  0  0
  -31.1586    0.1919   30.1479 F   0  0  0  0  0  0  0  0  0  0  0  0
  -23.4947    2.1969   27.4908 C   0  0  0  0  0  0  0  0  0  0  0  0
  -22.3903    1.6533   27.4935 C   0  0  0  0  0  0  0  0  0  0  0  0
  -22.1232    0.6144   28.5241 C   0  0  0  0  0  0  0  0  0  0  0  0
  -23.1996   -0.2666   28.6942 C   0  0  0  0  0  0  0  0  0  0  0  0
  -25.5669   -1.1501   30.1011 O   0  0  0  0  0  0  0  0  0  0  0  0
  -26.1411    2.8510   26.3887 C   0  0  0  0  0  0  0  0  0  0  0  0
  -29.5834    0.8383   28.3240 F   0  0  0  0  0  0  0  0  0  0  0  0
  2  3  1  0
  3  4  1  0
  5  6  1  0
  2  7  1  0
  1  8  1  0
  8  9  1  0
  9 10  1  0
  9 11  1  0
  3 16  2  0
  6 17  1  0
  8 18  1  0
  1  2  1  0
  7  6  1  0
  4  5  2  0
  5 12  1  0
 12 13  2  0
 13 14  1  0
 14 15  2  0
 15  4  1  0
M  END

$$$$
