No_491-gen_results/8p0m/2024-11-27-11-27-31/
     RDKit          3D

 33 36  0  0  0  0  0  0  0  0999 V2000
  -28.0162   -0.8135   28.8779 C   0  0  0  0  0  0  0  0  0  0  0  0
  -28.4690   -0.7850   29.8287 C   0  0  0  0  0  0  0  0  0  0  0  0
  -26.5042   -0.7777   28.8766 C   0  0  0  0  0  0  0  0  0  0  0  0
  -25.6540   -0.6597   27.7191 C   0  0  0  0  0  0  0  0  0  0  0  0
  -27.9180   -0.9374   31.1824 C   0  0  0  0  0  0  0  0  0  0  0  0
  -26.5423   -0.9399   31.2606 C   0  0  0  0  0  0  0  0  0  0  0  0
  -25.7832   -0.8935   30.1201 C   0  0  0  0  0  0  0  0  0  0  0  0
  -25.9483    0.0335   26.7026 N   0  0  0  0  0  0  0  0  0  0  0  0
  -24.4613   -1.1986   27.7274 O   0  0  0  0  0  0  0  0  0  0  0  0
  -27.0974    0.8180   26.5133 C   0  0  0  0  0  0  0  0  0  0  0  0
  -26.8324    2.0602   26.5722 C   0  0  0  0  0  0  0  0  0  0  0  0
  -28.2221    0.2715   25.9360 C   0  0  0  0  0  0  0  0  0  0  0  0
  -29.2803    1.0824   25.5688 C   0  0  0  0  0  0  0  0  0  0  0  0
  -27.9360    2.9795   26.2998 C   0  0  0  0  0  0  0  0  0  0  0  0
  -29.1015    2.5082   25.7009 C   0  0  0  0  0  0  0  0  0  0  0  0
  -30.0629   -0.7111   29.9207 C   0  0  0  0  0  0  0  0  0  0  0  0
  -30.6092    0.1045   29.3450 O   0  0  0  0  0  0  0  0  0  0  0  0
  -30.7236   -1.6565   30.6071 N   0  0  0  0  0  0  0  0  0  0  0  0
  -32.1735   -1.6777   30.5971 C   0  0  0  0  0  0  0  0  0  0  0  0
  -30.2207   -3.0323   30.5378 C   0  0  0  0  0  0  0  0  0  0  0  0
  -31.0517   -4.0403   30.3205 C   0  0  0  0  0  0  0  0  0  0  0  0
  -30.6030   -5.2867   30.6594 C   0  0  0  0  0  0  0  0  0  0  0  0
  -29.2113   -5.5524   30.9826 C   0  0  0  0  0  0  0  0  0  0  0  0
  -28.4145   -4.4412   31.1786 C   0  0  0  0  0  0  0  0  0  0  0  0
  -28.9046   -3.2725   31.0653 C   0  0  0  0  0  0  0  0  0  0  0  0
  -32.7192   -0.6165   31.4060 C   0  0  0  0  0  0  0  0  0  0  0  0
  -32.2289   -0.3363   32.4764 C   0  0  0  0  0  0  0  0  0  0  0  0
  -32.5244    0.4467   33.4020 C   0  0  0  0  0  0  0  0  0  0  0  0
  -31.8528    0.7066   34.6583 C   0  0  0  0  0  0  0  0  0  0  0  0
  -30.6486    0.0303   34.8640 C   0  0  0  0  0  0  0  0  0  0  0  0
  -30.1675   -0.8587   33.9007 C   0  0  0  0  0  0  0  0  0  0  0  0
  -30.8741   -1.0207   32.7836 C   0  0  0  0  0  0  0  0  0  0  0  0
  -32.8446   -2.1480   29.7232 O   0  0  0  0  0  0  0  0  0  0  0  0
  3  4  1  0
  4  8  1  0
  4  9  2  0
  8 10  1  0
  2 16  1  0
 16 17  2  0
 16 18  1  0
 18 19  1  0
 18 20  1  0
 19 26  1  0
 19 33  2  0
 26 27  1  0
 27 28  2  0
 28 29  1  0
 29 30  2  0
 30 31  1  0
 31 32  2  0
 32 27  1  0
 10 11  2  0
 11 14  1  0
 14 15  2  0
 15 13  1  0
 13 12  2  0
 12 10  1  0
  1  2  2  0
  2  5  1  0
  5  6  2  0
  6  7  1  0
  7  3  2  0
  3  1  1  0
 20 21  2  0
 21 22  1  0
 22 23  2  0
 23 24  1  0
 24 25  2  0
 25 20  1  0
M  END

$$$$
