No_4574-gen_results/8p0m/2024-11-27-11-27-31/
     RDKit          3D

 14 15  0  0  0  0  0  0  0  0999 V2000
  -28.0162   -0.8135   28.8779 C   0  0  0  0  0  0  0  0  0  0  0  0
  -27.0636   -0.1190   28.6079 C   0  0  0  0  0  0  0  0  0  0  0  0
  -26.9287    1.1713   29.0083 C   0  0  0  0  0  0  0  0  0  0  0  0
  -27.9560    1.7411   29.7840 C   0  0  0  0  0  0  0  0  0  0  0  0
  -29.0569   -0.3271   29.7466 C   0  0  0  0  0  0  0  0  0  0  0  0
  -28.9828    0.9722   30.1516 C   0  0  0  0  0  0  0  0  0  0  0  0
  -25.7249   -0.7275   27.6731 Cl  0  0  0  0  0  0  0  0  0  0  0  0
  -30.0821    1.5088   31.0097 C   0  0  0  0  0  0  0  0  0  0  0  0
  -30.9863    2.1539   30.7328 C   0  0  0  0  0  0  0  0  0  0  0  0
  -31.1892    2.6236   29.3217 C   0  0  0  0  0  0  0  0  0  0  0  0
  -32.3368    3.4246   28.9616 C   0  0  0  0  0  0  0  0  0  0  0  0
  -33.2234    3.7497   30.0038 C   0  0  0  0  0  0  0  0  0  0  0  0
  -33.0771    3.3558   31.2682 C   0  0  0  0  0  0  0  0  0  0  0  0
  -31.9950    2.5760   31.6952 C   0  0  0  0  0  0  0  0  0  0  0  0
  2  7  1  0
  6  8  1  0
  8  9  1  0
  1  2  2  0
  2  3  1  0
  3  4  2  0
  4  6  1  0
  6  5  2  0
  5  1  1  0
  9 10  2  0
 10 11  1  0
 11 12  2  0
 12 13  1  0
 13 14  2  0
 14  9  1  0
M  END

$$$$
