No_4853-gen_results/8p0m/2024-11-27-11-27-31/
     RDKit          3D

 28 31  0  0  0  0  0  0  0  0999 V2000
  -28.1493   -0.8198   28.9079 Cl  0  0  0  0  0  0  0  0  0  0  0  0
  -26.9116   -0.0797   28.9452 C   0  0  0  0  0  0  0  0  0  0  0  0
  -26.7384    1.0439   29.2534 C   0  0  0  0  0  0  0  0  0  0  0  0
  -25.4392    1.7115   29.2755 C   0  0  0  0  0  0  0  0  0  0  0  0
  -24.2812    0.9888   28.8542 C   0  0  0  0  0  0  0  0  0  0  0  0
  -24.4869   -0.3041   28.4957 C   0  0  0  0  0  0  0  0  0  0  0  0
  -25.7046   -0.8667   28.5244 C   0  0  0  0  0  0  0  0  0  0  0  0
  -22.9690    1.6346   28.7977 C   0  0  0  0  0  0  0  0  0  0  0  0
  -22.7269    2.5626   28.2578 N   0  0  0  0  0  0  0  0  0  0  0  0
  -21.9537    0.8077   29.2129 O   0  0  0  0  0  0  0  0  0  0  0  0
  -27.7109    1.8523   29.6713 F   0  0  0  0  0  0  0  0  0  0  0  0
  -25.2003    2.9909   29.6456 O   0  0  0  0  0  0  0  0  0  0  0  0
  -25.7021    4.0377   28.9002 C   0  0  0  0  0  0  0  0  0  0  0  0
  -25.7102    4.2223   27.6862 C   0  0  0  0  0  0  0  0  0  0  0  0
  -26.1441    5.3881   27.0773 C   0  0  0  0  0  0  0  0  0  0  0  0
  -26.4251    6.5364   27.8482 C   0  0  0  0  0  0  0  0  0  0  0  0
  -25.9741    5.1698   29.8727 C   0  0  0  0  0  0  0  0  0  0  0  0
  -26.3358    6.4069   29.2709 C   0  0  0  0  0  0  0  0  0  0  0  0
  -26.6528    7.5706   30.1480 C   0  0  0  0  0  0  0  0  0  0  0  0
  -26.4384    7.4416   31.3967 C   0  0  0  0  0  0  0  0  0  0  0  0
  -26.0009    6.3408   32.0142 C   0  0  0  0  0  0  0  0  0  0  0  0
  -25.7520    5.1152   31.2551 C   0  0  0  0  0  0  0  0  0  0  0  0
  -27.0302    8.8089   29.5281 C   0  0  0  0  0  0  0  0  0  0  0  0
  -28.2717    9.0304   29.1969 C   0  0  0  0  0  0  0  0  0  0  0  0
  -25.9872    9.7699   29.2012 C   0  0  0  0  0  0  0  0  0  0  0  0
  -28.6800    9.8090   28.1403 C   0  0  0  0  0  0  0  0  0  0  0  0
  -27.8223   10.9918   27.9225 C   0  0  0  0  0  0  0  0  0  0  0  0
  -26.4235   10.8583   28.2908 C   0  0  0  0  0  0  0  0  0  0  0  0
  1  2  1  0
  5  8  1  0
  8  9  1  0
  8 10  2  0
  3 11  1  0
  4 12  1  0
 12 13  1  0
 19 23  1  0
 18 19  2  0
 19 20  1  0
 20 21  2  0
 21 22  1  0
 22 17  2  0
  2  3  2  0
  3  4  1  0
  4  5  2  0
  5  6  1  0
  6  7  2  0
  7  2  1  0
 23 24  2  0
 24 26  1  0
 26 27  2  0
 27 28  1  0
 28 25  2  0
 25 23  1  0
 13 14  2  0
 14 15  1  0
 15 16  2  0
 16 18  1  0
 18 17  1  0
 17 13  1  0
M  END

$$$$
