No_4655-gen_results/8p0m/2024-11-27-11-27-31/
     RDKit          3D

 14 15  0  0  0  0  0  0  0  0999 V2000
  -28.1229   -1.3353   28.4874 O   0  0  0  0  0  0  0  0  0  0  0  0
  -27.0637   -0.8242   28.8687 C   0  0  0  0  0  0  0  0  0  0  0  0
  -26.4017   -0.0623   28.6224 C   0  0  0  0  0  0  0  0  0  0  0  0
  -26.2652   -1.8674   29.7609 N   0  0  0  0  0  0  0  0  0  0  0  0
  -26.8265    1.0749   27.9139 N   0  0  0  0  0  0  0  0  0  0  0  0
  -24.9670    0.3230   29.1793 C   0  0  0  0  0  0  0  0  0  0  0  0
  -24.4198   -0.6102   30.0393 C   0  0  0  0  0  0  0  0  0  0  0  0
  -25.1015   -1.7530   30.2889 C   0  0  0  0  0  0  0  0  0  0  0  0
  -26.2950    1.4067   26.7219 C   0  0  0  0  0  0  0  0  0  0  0  0
  -28.0438    1.6413   28.1908 C   0  0  0  0  0  0  0  0  0  0  0  0
  -28.6894    2.3183   27.3519 C   0  0  0  0  0  0  0  0  0  0  0  0
  -26.8925    2.2119   25.7509 C   0  0  0  0  0  0  0  0  0  0  0  0
  -28.0994    2.7959   26.0953 C   0  0  0  0  0  0  0  0  0  0  0  0
  -25.1482    0.6936   26.4210 N   0  0  0  0  0  0  0  0  0  0  0  0
  1  2  2  0
  2  3  1  0
  2  4  1  0
  3  5  1  0
  3  6  1  0
  7  8  1  0
  5  9  1  0
  5 10  1  0
  9 12  1  0
 11 13  1  0
 12 13  1  0
  9 14  1  0
 11 10  1  0
  6  7  1  0
  8  4  1  0
M  END

$$$$
