No_4208-gen_results/8p0m/2024-11-27-11-27-31/
     RDKit          3D

 21 22  0  0  0  0  0  0  0  0999 V2000
  -28.0162   -0.8135   28.8779 C   0  0  0  0  0  0  0  0  0  0  0  0
  -28.4690   -0.7850   29.8287 C   0  0  0  0  0  0  0  0  0  0  0  0
  -26.5455   -0.8762   28.8500 C   0  0  0  0  0  0  0  0  0  0  0  0
  -25.8041   -1.0324   30.0571 C   0  0  0  0  0  0  0  0  0  0  0  0
  -27.9437   -0.9869   31.2075 C   0  0  0  0  0  0  0  0  0  0  0  0
  -26.5825   -1.0386   31.2231 C   0  0  0  0  0  0  0  0  0  0  0  0
  -24.4246   -0.9571   29.9095 C   0  0  0  0  0  0  0  0  0  0  0  0
  -23.6513    0.4074   29.8443 P   0  0  0  0  0  0  0  0  0  0  0  0
  -22.2606    0.1459   29.6126 O   0  0  0  0  0  0  0  0  0  0  0  0
  -23.7500    1.0981   31.2376 O   0  0  0  0  0  0  0  0  0  0  0  0
  -24.2873    1.2824   28.8058 O   0  0  0  0  0  0  0  0  0  0  0  0
  -23.8368    1.3499   27.5965 C   0  0  0  0  0  0  0  0  0  0  0  0
  -24.8507    1.7136   26.6201 C   0  0  0  0  0  0  0  0  0  0  0  0
  -25.0735    0.8262   25.6681 C   0  0  0  0  0  0  0  0  0  0  0  0
  -26.3285    0.8255   24.9253 C   0  0  0  0  0  0  0  0  0  0  0  0
  -27.2173    1.8681   25.1125 C   0  0  0  0  0  0  0  0  0  0  0  0
  -25.7136    2.8052   26.7989 C   0  0  0  0  0  0  0  0  0  0  0  0
  -26.8827    2.9012   26.0358 C   0  0  0  0  0  0  0  0  0  0  0  0
  -30.0998   -0.6720   29.8821 C   0  0  0  0  0  0  0  0  0  0  0  0
  -30.5589   -0.2701   28.8992 O   0  0  0  0  0  0  0  0  0  0  0  0
  -30.7671   -0.9552   30.9215 O   0  0  0  0  0  0  0  0  0  0  0  0
  4  7  1  0
  7  8  1  0
  8  9  2  0
  8 10  1  0
  8 11  1  0
 11 12  1  0
 12 13  1  0
  2 19  1  0
 19 20  2  0
 19 21  1  0
 13 14  2  0
 14 15  1  0
 15 16  2  0
 16 18  1  0
 18 17  2  0
 17 13  1  0
  1  2  2  0
  2  5  1  0
  5  6  2  0
  6  4  1  0
  4  3  2  0
  3  1  1  0
M  END

$$$$
