No_4821-gen_results/8p0m/2024-11-27-11-27-31/
     RDKit          3D

 26 28  0  0  0  0  0  0  0  0999 V2000
  -28.0162   -0.8135   28.8779 C   0  0  0  0  0  0  0  0  0  0  0  0
  -28.4690   -0.7850   29.8287 C   0  0  0  0  0  0  0  0  0  0  0  0
  -27.1356    0.2359   28.5352 C   0  0  0  0  0  0  0  0  0  0  0  0
  -26.8745    1.2825   29.3982 C   0  0  0  0  0  0  0  0  0  0  0  0
  -28.3613    0.1987   30.9244 C   0  0  0  0  0  0  0  0  0  0  0  0
  -27.5277    1.2234   30.6356 C   0  0  0  0  0  0  0  0  0  0  0  0
  -26.3987    0.2949   27.2279 C   0  0  0  0  0  0  0  0  0  0  0  0
  -26.2345    1.5269   26.9601 F   0  0  0  0  0  0  0  0  0  0  0  0
  -27.1991   -0.1809   26.2638 F   0  0  0  0  0  0  0  0  0  0  0  0
  -25.1367    0.0414   27.2759 F   0  0  0  0  0  0  0  0  0  0  0  0
  -29.4001   -1.9990   30.3248 C   0  0  0  0  0  0  0  0  0  0  0  0
  -29.0047   -3.1255   30.3901 O   0  0  0  0  0  0  0  0  0  0  0  0
  -30.6690   -1.7464   30.6641 N   0  0  0  0  0  0  0  0  0  0  0  0
  -31.3167   -0.5030   30.5592 C   0  0  0  0  0  0  0  0  0  0  0  0
  -32.1471   -0.2864   29.6967 C   0  0  0  0  0  0  0  0  0  0  0  0
  -32.7493    1.0335   29.5066 C   0  0  0  0  0  0  0  0  0  0  0  0
  -32.4059    2.0532   30.4023 C   0  0  0  0  0  0  0  0  0  0  0  0
  -31.5109    1.7633   31.4074 C   0  0  0  0  0  0  0  0  0  0  0  0
  -30.9520    0.5523   31.5045 C   0  0  0  0  0  0  0  0  0  0  0  0
  -31.5468   -2.8079   31.0448 C   0  0  0  0  0  0  0  0  0  0  0  0
  -32.7795   -2.8073   31.2326 C   0  0  0  0  0  0  0  0  0  0  0  0
  -33.5307   -3.5311   31.6536 C   0  0  0  0  0  0  0  0  0  0  0  0
  -34.9645   -3.3429   31.8303 C   0  0  0  0  0  0  0  0  0  0  0  0
  -35.4749   -2.1510   31.3754 C   0  0  0  0  0  0  0  0  0  0  0  0
  -34.6946   -1.2105   30.8203 C   0  0  0  0  0  0  0  0  0  0  0  0
  -33.3032   -1.4388   30.7466 C   0  0  0  0  0  0  0  0  0  0  0  0
  3  7  1  0
  7  8  1  0
  7  9  1  0
  7 10  1  0
  2 11  1  0
 11 12  2  0
 11 13  1  0
 13 14  1  0
 13 20  1  0
 20 21  1  0
 14 15  2  0
 15 16  1  0
 16 17  2  0
 17 18  1  0
 18 19  2  0
 19 14  1  0
  1  2  2  0
  2  5  1  0
  5  6  2  0
  6  4  1  0
  4  3  2  0
  3  1  1  0
 21 22  2  0
 22 23  1  0
 23 24  2  0
 24 25  1  0
 25 26  2  0
 26 21  1  0
M  END

$$$$
