No_4443-gen_results/8p0m/2024-11-27-11-27-31/
     RDKit          3D

 17 18  0  0  0  0  0  0  0  0999 V2000
  -28.0162   -0.8135   28.8779 C   0  0  0  0  0  0  0  0  0  0  0  0
  -27.0636   -0.1190   28.6079 C   0  0  0  0  0  0  0  0  0  0  0  0
  -27.0010    0.6913   27.4910 C   0  0  0  0  0  0  0  0  0  0  0  0
  -28.1373    0.7363   26.6350 C   0  0  0  0  0  0  0  0  0  0  0  0
  -29.2360    0.0765   27.0690 C   0  0  0  0  0  0  0  0  0  0  0  0
  -29.2177   -0.6429   28.1747 C   0  0  0  0  0  0  0  0  0  0  0  0
  -30.3516    0.1564   26.2430 N   0  0  0  0  0  0  0  0  0  0  0  0
  -30.2688    0.1234   24.9366 C   0  0  0  0  0  0  0  0  0  0  0  0
  -29.6117   -0.5250   24.3822 C   0  0  0  0  0  0  0  0  0  0  0  0
  -31.3893    0.8558   24.2543 C   0  0  0  0  0  0  0  0  0  0  0  0
  -28.6002   -1.2644   24.8928 N   0  0  0  0  0  0  0  0  0  0  0  0
  -31.6279    0.1480   26.9523 C   0  0  0  0  0  0  0  0  0  0  0  0
  -27.6690   -1.8905   23.9073 C   0  0  0  0  0  0  0  0  0  0  0  0
  -32.1023   -1.0163   27.5423 C   0  0  0  0  0  0  0  0  0  0  0  0
  -33.2477   -0.9833   27.9402 N   0  0  0  0  0  0  0  0  0  0  0  0
  -34.0213    0.0074   27.6512 C   0  0  0  0  0  0  0  0  0  0  0  0
  -32.9137    0.6588   26.3876 C   0  0  0  0  0  0  0  0  0  0  0  0
  5  7  1  0
  7  8  1  0
  8  9  1  0
  8 10  1  0
  9 11  1  0
  7 12  1  0
 11 13  1  0
 12 14  2  0
 14 15  1  0
 15 16  2  0
 12 17  1  0
 16 17  1  0
  1  2  2  0
  2  3  1  0
  3  4  2  0
  4  5  1  0
  5  6  2  0
  6  1  1  0
M  END

$$$$
