No_4627-gen_results/8p0m/2024-11-27-11-27-31/
     RDKit          3D

 20 22  0  0  0  0  0  0  0  0999 V2000
  -28.0162   -0.8135   28.8779 C   0  0  0  0  0  0  0  0  0  0  0  0
  -27.0636   -0.1190   28.6079 C   0  0  0  0  0  0  0  0  0  0  0  0
  -27.0010    0.6913   27.4910 C   0  0  0  0  0  0  0  0  0  0  0  0
  -25.8548    1.4825   27.0830 C   0  0  0  0  0  0  0  0  0  0  0  0
  -24.6901    1.4526   27.8807 C   0  0  0  0  0  0  0  0  0  0  0  0
  -24.7379    0.6010   29.0416 C   0  0  0  0  0  0  0  0  0  0  0  0
  -25.8234   -0.1688   29.3887 C   0  0  0  0  0  0  0  0  0  0  0  0
  -29.2150   -0.1725   29.0132 N   0  0  0  0  0  0  0  0  0  0  0  0
  -30.2463   -0.7735   29.6388 C   0  0  0  0  0  0  0  0  0  0  0  0
  -23.5190    2.2034   27.5550 C   0  0  0  0  0  0  0  0  0  0  0  0
  -22.5145    2.1984   28.3585 N   0  0  0  0  0  0  0  0  0  0  0  0
  -23.4570    2.7862   26.3311 N   0  0  0  0  0  0  0  0  0  0  0  0
  -30.0000   -1.9449   30.3133 C   0  0  0  0  0  0  0  0  0  0  0  0
  -28.7438   -2.5474   30.3731 C   0  0  0  0  0  0  0  0  0  0  0  0
  -27.7183   -1.8798   29.8347 C   0  0  0  0  0  0  0  0  0  0  0  0
  -31.4107   -0.3113   29.5426 O   0  0  0  0  0  0  0  0  0  0  0  0
  -26.4111   -2.3748   30.1281 C   0  0  0  0  0  0  0  0  0  0  0  0
  -25.3532   -1.4437   29.8554 C   0  0  0  0  0  0  0  0  0  0  0  0
  -31.0734   -2.5863   30.8784 O   0  0  0  0  0  0  0  0  0  0  0  0
  -31.1447   -3.8618   31.0674 C   0  0  0  0  0  0  0  0  0  0  0  0
  1  8  1  0
  8  9  1  0
  5 10  1  0
 10 11  2  0
 10 12  1  0
  9 13  1  0
 14 15  1  0
  9 16  2  0
 13 19  1  0
 19 20  1  0
 14 13  1  0
  2  3  2  0
  3  4  1  0
  4  5  2  0
  5  6  1  0
  6  7  2  0
  1  2  1  0
  2  7  1  0
  7 18  1  0
 18 17  2  0
 17 15  1  0
 15  1  2  0
M  END

$$$$
