No_4969-gen_results/8p0m/2024-11-27-11-27-31/
     RDKit          3D

 20 22  0  0  0  0  0  0  0  0999 V2000
  -28.0162   -0.8135   28.8779 C   0  0  0  0  0  0  0  0  0  0  0  0
  -27.0636   -0.1189   28.6079 C   0  0  0  0  0  0  0  0  0  0  0  0
  -26.9716    0.7139   27.5060 C   0  0  0  0  0  0  0  0  0  0  0  0
  -28.1053    0.7744   26.6421 C   0  0  0  0  0  0  0  0  0  0  0  0
  -29.2041    0.1179   27.0477 C   0  0  0  0  0  0  0  0  0  0  0  0
  -29.2127   -0.6088   28.1281 C   0  0  0  0  0  0  0  0  0  0  0  0
  -30.2936    0.2344   26.2281 O   0  0  0  0  0  0  0  0  0  0  0  0
  -25.6945    1.4446   27.1335 C   0  0  0  0  0  0  0  0  0  0  0  0
  -24.8941    1.8840   28.2733 C   0  0  0  0  0  0  0  0  0  0  0  0
  -23.7355    1.7442   28.2334 C   0  0  0  0  0  0  0  0  0  0  0  0
  -22.7865    1.8473   29.3489 C   0  0  0  0  0  0  0  0  0  0  0  0
  -23.4574    1.9365   30.6279 C   0  0  0  0  0  0  0  0  0  0  0  0
  -24.8229    2.1467   30.7274 C   0  0  0  0  0  0  0  0  0  0  0  0
  -25.5995    2.0642   29.5456 C   0  0  0  0  0  0  0  0  0  0  0  0
  -25.4213    2.3515   32.0604 C   0  0  0  0  0  0  0  0  0  0  0  0
  -25.8755    1.2953   32.7297 C   0  0  0  0  0  0  0  0  0  0  0  0
  -26.5241    1.3883   33.9407 C   0  0  0  0  0  0  0  0  0  0  0  0
  -25.5402    3.6782   32.5432 C   0  0  0  0  0  0  0  0  0  0  0  0
  -26.1529    3.8917   33.7977 C   0  0  0  0  0  0  0  0  0  0  0  0
  -26.6665    2.7496   34.4717 C   0  0  0  0  0  0  0  0  0  0  0  0
  5  7  1  0
  3  8  1  0
  8  9  1  0
 13 15  1  0
 15 16  2  0
 16 17  1  0
 17 20  2  0
 20 19  1  0
 19 18  2  0
 18 15  1  0
  1  2  2  0
  2  3  1  0
  3  4  2  0
  4  5  1  0
  5  6  2  0
  6  1  1  0
  9 10  2  0
 10 11  1  0
 11 12  2  0
 12 13  1  0
 13 14  2  0
 14  9  1  0
M  END

$$$$
