No_4076-gen_results/8p0m/2024-11-27-11-27-31/
     RDKit          3D

 26 26  0  0  0  0  0  0  0  0999 V2000
  -28.0162   -0.8135   28.8779 C   0  0  0  0  0  0  0  0  0  0  0  0
  -27.0636   -0.1189   28.6079 C   0  0  0  0  0  0  0  0  0  0  0  0
  -27.0788    0.9846   29.1738 F   0  0  0  0  0  0  0  0  0  0  0  0
  -25.9956   -0.3885   27.6940 C   0  0  0  0  0  0  0  0  0  0  0  0
  -24.7191   -0.8167   28.2368 C   0  0  0  0  0  0  0  0  0  0  0  0
  -28.6365   -1.1768   30.0855 C   0  0  0  0  0  0  0  0  0  0  0  0
  -28.0819   -0.5256   31.1393 C   0  0  0  0  0  0  0  0  0  0  0  0
  -28.7492   -0.4127   32.3394 C   0  0  0  0  0  0  0  0  0  0  0  0
  -26.0039    0.0284   26.3561 C   0  0  0  0  0  0  0  0  0  0  0  0
  -27.1333    0.4616   25.7055 C   0  0  0  0  0  0  0  0  0  0  0  0
  -27.2287    0.4962   24.3655 C   0  0  0  0  0  0  0  0  0  0  0  0
  -28.5048    0.8316   23.8197 C   0  0  0  0  0  0  0  0  0  0  0  0
  -29.5408    1.1782   24.6789 C   0  0  0  0  0  0  0  0  0  0  0  0
  -29.4184    1.1695   26.0234 C   0  0  0  0  0  0  0  0  0  0  0  0
  -28.2142    0.8159   26.5977 C   0  0  0  0  0  0  0  0  0  0  0  0
  -23.6721   -0.0169   28.5998 C   0  0  0  0  0  0  0  0  0  0  0  0
  -23.6519    1.4348   28.5118 C   0  0  0  0  0  0  0  0  0  0  0  0
  -24.5396    2.1649   28.4269 C   0  0  0  0  0  0  0  0  0  0  0  0
  -24.4357    3.5486   27.6624 C   0  0  0  0  0  0  0  0  0  0  0  0
  -24.7800   -0.1585   25.5360 C   0  0  0  0  0  0  0  0  0  0  0  0
  -25.5653    4.4134   27.7325 C   0  0  0  0  0  0  0  0  0  0  0  0
  -25.5897    5.4701   27.0076 C   0  0  0  0  0  0  0  0  0  0  0  0
  -26.5094    6.5215   27.2694 C   0  0  0  0  0  0  0  0  0  0  0  0
  -26.4598    7.7832   26.6453 C   0  0  0  0  0  0  0  0  0  0  0  0
  -26.7042    4.1091   28.5173 C   0  0  0  0  0  0  0  0  0  0  0  0
  -27.4966    4.7624   28.7522 C   0  0  0  0  0  0  0  0  0  0  0  0
  1  2  1  0
  2  3  1  0
  2  4  1  0
  4  5  1  0
  1  6  2  3
  6  7  1  0
  7  8  2  0
  4  9  1  0
  9 10  1  0
  5 16  2  3
 16 17  1  0
 17 18  1  0
 18 19  2  3
  9 20  1  0
 19 21  1  0
 21 22  1  0
 22 23  2  3
 23 24  1  0
 21 25  1  0
 25 26  2  0
 10 11  2  0
 11 12  1  0
 12 13  2  0
 13 14  1  0
 14 15  2  0
 15 10  1  0
M  END

$$$$
