No_4087-gen_results/8p0m/2024-11-27-11-27-31/
     RDKit          3D

 22 24  0  0  0  0  0  0  0  0999 V2000
  -28.0162   -0.8135   28.8779 C   0  0  0  0  0  0  0  0  0  0  0  0
  -28.4690   -0.7850   29.8287 C   0  0  0  0  0  0  0  0  0  0  0  0
  -28.1816    0.4277   28.1134 C   0  0  0  0  0  0  0  0  0  0  0  0
  -27.4498    0.6435   26.8500 C   0  0  0  0  0  0  0  0  0  0  0  0
  -26.1815    0.0357   26.7145 C   0  0  0  0  0  0  0  0  0  0  0  0
  -25.7800   -0.9326   27.6938 C   0  0  0  0  0  0  0  0  0  0  0  0
  -26.5568   -1.2134   28.7413 C   0  0  0  0  0  0  0  0  0  0  0  0
  -28.3021   -1.9782   30.6613 N   0  0  0  0  0  0  0  0  0  0  0  0
  -29.5330   -0.1613   30.2779 O   0  0  0  0  0  0  0  0  0  0  0  0
  -29.1652   -2.4095   31.8078 C   0  0  0  0  0  0  0  0  0  0  0  0
  -25.2943    0.3227   25.6009 C   0  0  0  0  0  0  0  0  0  0  0  0
  -27.2132   -2.8463   30.4707 C   0  0  0  0  0  0  0  0  0  0  0  0
  -26.1591   -2.4285   29.5236 C   0  0  0  0  0  0  0  0  0  0  0  0
  -24.5967    1.2915   25.2858 N   0  0  0  0  0  0  0  0  0  0  0  0
  -24.4881    2.3077   26.2572 C   0  0  0  0  0  0  0  0  0  0  0  0
  -24.5040    2.3677   27.3189 C   0  0  0  0  0  0  0  0  0  0  0  0
  -24.4066    3.6098   28.1516 C   0  0  0  0  0  0  0  0  0  0  0  0
  -24.7097    3.5276   29.5176 C   0  0  0  0  0  0  0  0  0  0  0  0
  -24.8990    2.2670   30.1110 C   0  0  0  0  0  0  0  0  0  0  0  0
  -24.8414    1.1251   29.3624 C   0  0  0  0  0  0  0  0  0  0  0  0
  -24.6895    1.2128   28.1251 C   0  0  0  0  0  0  0  0  0  0  0  0
  -23.8533    0.1167   27.5684 C   0  0  0  0  0  0  0  0  0  0  0  0
  1  2  1  0
  2  8  1  0
  2  9  2  0
  8 10  1  0
  5 11  1  0
  8 12  1  0
  7 13  1  0
 11 14  1  0
 14 15  1  0
 21 22  1  0
 15 16  1  0
 13 12  1  0
 16 17  2  0
 17 18  1  0
 18 19  2  0
 19 20  1  0
 20 21  2  0
 21 16  1  0
  1  3  2  0
  3  4  1  0
  4  5  2  0
  5  6  1  0
  6  7  2  0
  7  1  1  0
M  END

$$$$
