No_4744-gen_results/8p0m/2024-11-27-11-27-31/
     RDKit          3D

 28 30  0  0  0  0  0  0  0  0999 V2000
  -28.0162   -0.8135   28.8779 C   0  0  0  0  0  0  0  0  0  0  0  0
  -27.0636   -0.1189   28.6079 C   0  0  0  0  0  0  0  0  0  0  0  0
  -25.7923   -0.4302   29.0761 C   0  0  0  0  0  0  0  0  0  0  0  0
  -24.5456    0.3494   28.8225 C   0  0  0  0  0  0  0  0  0  0  0  0
  -24.6586    1.4196   27.8878 C   0  0  0  0  0  0  0  0  0  0  0  0
  -25.9471    1.6811   27.3792 C   0  0  0  0  0  0  0  0  0  0  0  0
  -27.0439    0.9739   27.6871 C   0  0  0  0  0  0  0  0  0  0  0  0
  -27.9229   -2.0316   29.0996 F   0  0  0  0  0  0  0  0  0  0  0  0
  -29.2598   -0.4545   28.8119 F   0  0  0  0  0  0  0  0  0  0  0  0
  -23.4622    2.1487   27.6087 C   0  0  0  0  0  0  0  0  0  0  0  0
  -23.4593    3.1504   26.8520 N   0  0  0  0  0  0  0  0  0  0  0  0
  -22.1483    1.6637   28.0200 C   0  0  0  0  0  0  0  0  0  0  0  0
  -21.1320    2.3020   27.2961 N   0  0  0  0  0  0  0  0  0  0  0  0
  -21.8717    0.5896   28.7393 N   0  0  0  0  0  0  0  0  0  0  0  0
  -24.7354    3.8120   26.7887 C   0  0  0  0  0  0  0  0  0  0  0  0
  -25.9272    3.0531   26.7571 C   0  0  0  0  0  0  0  0  0  0  0  0
  -22.6299   -0.1584   29.4822 C   0  0  0  0  0  0  0  0  0  0  0  0
  -23.6272   -0.1000   29.6623 C   0  0  0  0  0  0  0  0  0  0  0  0
  -27.1571    3.6358   26.3138 C   0  0  0  0  0  0  0  0  0  0  0  0
  -27.4109    3.1839   25.1881 F   0  0  0  0  0  0  0  0  0  0  0  0
  -28.1690    3.1682   27.0819 F   0  0  0  0  0  0  0  0  0  0  0  0
  -27.1523    4.9151   26.3343 F   0  0  0  0  0  0  0  0  0  0  0  0
  -21.7010   -0.9197   30.2462 O   0  0  0  0  0  0  0  0  0  0  0  0
  -24.1287   -0.5387   30.9132 O   0  0  0  0  0  0  0  0  0  0  0  0
  -24.3693    0.2999   31.9418 C   0  0  0  0  0  0  0  0  0  0  0  0
  -25.1787   -0.3270   33.0511 C   0  0  0  0  0  0  0  0  0  0  0  0
  -26.3480   -0.5978   32.5499 F   0  0  0  0  0  0  0  0  0  0  0  0
  -24.7272   -1.1461   33.8281 F   0  0  0  0  0  0  0  0  0  0  0  0
  1  2  1  0
  1  8  1  0
  1  9  1  0
 10 12  1  0
 12 13  1  0
 12 14  1  0
 14 17  1  0
  4 18  1  0
 17 18  1  0
 16 19  1  0
 19 20  1  0
 19 21  1  0
 19 22  1  0
 17 23  2  0
 18 24  1  0
 24 25  1  0
 25 26  2  3
 26 27  1  0
 26 28  1  0
  2  3  2  0
  3  4  1  0
  4  5  2  0
  6  7  2  0
  7  2  1  0
  5  6  1  0
  6 16  1  0
 16 15  2  0
 15 11  1  0
 11 10  2  0
 10  5  1  0
M  END

$$$$
