No_4541-gen_results/8p0m/2024-11-27-11-27-31/
     RDKit          3D

 29 31  0  0  0  0  0  0  0  0999 V2000
  -28.0162   -0.8135   28.8779 C   0  0  0  0  0  0  0  0  0  0  0  0
  -28.4690   -0.7850   29.8287 C   0  0  0  0  0  0  0  0  0  0  0  0
  -27.0871    0.2903   28.6377 C   0  0  0  0  0  0  0  0  0  0  0  0
  -26.2516    0.4114   27.4223 C   0  0  0  0  0  0  0  0  0  0  0  0
  -28.3913    0.1041   30.9805 C   0  0  0  0  0  0  0  0  0  0  0  0
  -27.5332    1.1666   30.7866 C   0  0  0  0  0  0  0  0  0  0  0  0
  -26.8281    1.2557   29.6454 C   0  0  0  0  0  0  0  0  0  0  0  0
  -25.7328    1.6893   27.1547 C   0  0  0  0  0  0  0  0  0  0  0  0
  -24.6744    1.7805   26.3311 C   0  0  0  0  0  0  0  0  0  0  0  0
  -23.4889    1.8297   26.5696 C   0  0  0  0  0  0  0  0  0  0  0  0
  -22.9285    1.7818   27.9020 C   0  0  0  0  0  0  0  0  0  0  0  0
  -21.5042    1.4920   28.0661 C   0  0  0  0  0  0  0  0  0  0  0  0
  -20.9746    0.4231   28.1767 C   0  0  0  0  0  0  0  0  0  0  0  0
  -27.0217    0.0088   26.3656 F   0  0  0  0  0  0  0  0  0  0  0  0
  -25.1636   -0.6152   27.5345 O   0  0  0  0  0  0  0  0  0  0  0  0
  -21.5190   -0.4920   29.1652 C   0  0  0  0  0  0  0  0  0  0  0  0
  -22.8159   -0.6894   29.3294 C   0  0  0  0  0  0  0  0  0  0  0  0
  -23.2963   -0.6959   30.5508 C   0  0  0  0  0  0  0  0  0  0  0  0
  -24.1929   -0.1444   31.1056 C   0  0  0  0  0  0  0  0  0  0  0  0
  -24.6806   -0.2180   32.4603 C   0  0  0  0  0  0  0  0  0  0  0  0
  -24.0243   -1.1439   33.2436 C   0  0  0  0  0  0  0  0  0  0  0  0
  -22.7863   -1.6922   31.6573 C   0  0  0  0  0  0  0  0  0  0  0  0
  -23.0457   -1.7582   32.8513 N   0  0  0  0  0  0  0  0  0  0  0  0
  -27.4221    2.2274   31.8404 C   0  0  0  0  0  0  0  0  0  0  0  0
  -26.5261    3.2361   31.6248 C   0  0  0  0  0  0  0  0  0  0  0  0
  -26.2463    4.1853   32.6420 C   0  0  0  0  0  0  0  0  0  0  0  0
  -26.8411    4.1093   33.9010 C   0  0  0  0  0  0  0  0  0  0  0  0
  -27.7341    3.0183   34.0809 C   0  0  0  0  0  0  0  0  0  0  0  0
  -27.9596    2.0883   33.0945 C   0  0  0  0  0  0  0  0  0  0  0  0
  3  4  1  0
  4  8  1  0
  8  9  2  3
  9 10  1  0
 10 11  1  0
 11 12  2  3
 12 13  1  0
  4 14  1  0
  4 15  1  0
 13 16  2  3
 16 17  1  0
 17 18  1  0
  6 24  1  0
 18 19  2  0
 19 20  1  0
 20 21  2  0
 21 23  1  0
 23 22  2  0
 22 18  1  0
 24 25  2  0
 25 26  1  0
 26 27  2  0
 27 28  1  0
 28 29  2  0
 29 24  1  0
  1  2  2  0
  2  5  1  0
  5  6  2  0
  6  7  1  0
  7  3  2  0
  3  1  1  0
M  END

$$$$
