No_441-gen_results/8p0m/2024-11-27-11-27-31/
     RDKit          3D

 35 38  0  0  0  0  0  0  0  0999 V2000
  -28.0162   -0.8135   28.8779 C   0  0  0  0  0  0  0  0  0  0  0  0
  -27.0636   -0.1190   28.6079 C   0  0  0  0  0  0  0  0  0  0  0  0
  -26.9716    0.7139   27.5060 C   0  0  0  0  0  0  0  0  0  0  0  0
  -28.1053    0.7744   26.6421 C   0  0  0  0  0  0  0  0  0  0  0  0
  -29.2008    0.1044   27.0527 C   0  0  0  0  0  0  0  0  0  0  0  0
  -29.2096   -0.6029   28.1853 C   0  0  0  0  0  0  0  0  0  0  0  0
  -30.6413    0.2367   25.7877 Br  0  0  0  0  0  0  0  0  0  0  0  0
  -25.7097   -0.2177   29.4370 C   0  0  0  0  0  0  0  0  0  0  0  0
  -25.3954    0.0219   30.4803 N   0  0  0  0  0  0  0  0  0  0  0  0
  -24.6937   -0.8488   28.7390 O   0  0  0  0  0  0  0  0  0  0  0  0
  -24.1483   -0.1323   31.1702 C   0  0  0  0  0  0  0  0  0  0  0  0
  -26.4309    0.7309   31.3923 C   0  0  0  0  0  0  0  0  0  0  0  0
  -23.7081   -1.3476   31.2405 C   0  0  0  0  0  0  0  0  0  0  0  0
  -26.0938    2.0556   31.6652 C   0  0  0  0  0  0  0  0  0  0  0  0
  -26.9827    2.6831   32.6277 C   0  0  0  0  0  0  0  0  0  0  0  0
  -26.8358    4.0963   32.8152 C   0  0  0  0  0  0  0  0  0  0  0  0
  -25.7317    4.8324   32.2421 C   0  0  0  0  0  0  0  0  0  0  0  0
  -24.8783    4.0968   31.4080 C   0  0  0  0  0  0  0  0  0  0  0  0
  -25.0378    2.7993   31.1555 C   0  0  0  0  0  0  0  0  0  0  0  0
  -25.4863    6.2346   32.5975 C   0  0  0  0  0  0  0  0  0  0  0  0
  -24.7895    6.5337   33.4743 C   0  0  0  0  0  0  0  0  0  0  0  0
  -23.8958    7.0499   33.8302 N   0  0  0  0  0  0  0  0  0  0  0  0
  -26.2246    7.1278   31.7126 C   0  0  0  0  0  0  0  0  0  0  0  0
  -25.5677    7.6101   30.6652 C   0  0  0  0  0  0  0  0  0  0  0  0
  -24.4981    8.2892   30.6750 C   0  0  0  0  0  0  0  0  0  0  0  0
  -23.8413    8.7904   29.4198 C   0  0  0  0  0  0  0  0  0  0  0  0
  -26.2111    7.5469   29.3474 C   0  0  0  0  0  0  0  0  0  0  0  0
  -27.4568    6.7355   29.2931 C   0  0  0  0  0  0  0  0  0  0  0  0
  -25.6512    7.9432   28.1862 C   0  0  0  0  0  0  0  0  0  0  0  0
  -24.4266    8.6247   28.2576 C   0  0  0  0  0  0  0  0  0  0  0  0
  -27.3289    5.4270   28.6704 C   0  0  0  0  0  0  0  0  0  0  0  0
  -28.6599    7.2270   29.7524 C   0  0  0  0  0  0  0  0  0  0  0  0
  -28.0534    5.0476   28.0445 C   0  0  0  0  0  0  0  0  0  0  0  0
  -29.7860    6.5350   29.1865 C   0  0  0  0  0  0  0  0  0  0  0  0
  -29.5309    5.4065   28.4164 C   0  0  0  0  0  0  0  0  0  0  0  0
  5  7  1  0
  2  8  1  0
  8  9  1  0
  8 10  2  0
  9 11  1  0
  9 12  1  0
 11 13  1  0
 17 20  1  0
 20 21  1  0
 21 22  3  0
 20 23  1  0
 23 24  1  0
 27 28  1  0
 12 14  1  0
  1  2  2  0
  2  3  1  0
  3  4  2  0
  4  5  1  0
  5  6  2  0
  6  1  1  0
 28 31  2  0
 31 33  1  0
 33 35  2  0
 35 34  1  0
 34 32  2  0
 32 28  1  0
 24 25  2  0
 25 26  1  0
 26 30  2  0
 30 29  1  0
 29 27  2  0
 27 24  1  0
 14 15  2  0
 15 16  1  0
 16 17  2  0
 17 18  1  0
 18 19  2  0
 19 14  1  0
M  END

$$$$
