No_4609-gen_results/8p0m/2024-11-27-11-27-31/
     RDKit          3D

 15 16  0  0  0  0  0  0  0  0999 V2000
  -28.0162   -0.8135   28.8779 C   0  0  0  0  0  0  0  0  0  0  0  0
  -28.4690   -0.7850   29.8287 C   0  0  0  0  0  0  0  0  0  0  0  0
  -27.0871    0.2903   28.6377 C   0  0  0  0  0  0  0  0  0  0  0  0
  -26.0239    0.3644   29.2526 C   0  0  0  0  0  0  0  0  0  0  0  0
  -27.5370   -0.6187   31.0883 C   0  0  0  0  0  0  0  0  0  0  0  0
  -26.3844    0.1834   30.8012 C   0  0  0  0  0  0  0  0  0  0  0  0
  -29.3312   -2.0275   30.3379 C   0  0  0  0  0  0  0  0  0  0  0  0
  -29.7634   -2.0453   31.5103 O   0  0  0  0  0  0  0  0  0  0  0  0
  -29.2336   -3.1035   29.7347 O   0  0  0  0  0  0  0  0  0  0  0  0
  -29.5887    0.2927   30.0163 C   0  0  0  0  0  0  0  0  0  0  0  0
  -30.4476    0.2756   29.1908 C   0  0  0  0  0  0  0  0  0  0  0  0
  -31.3534    1.3332   29.1540 C   0  0  0  0  0  0  0  0  0  0  0  0
  -31.2020    2.3477   30.0944 C   0  0  0  0  0  0  0  0  0  0  0  0
  -29.4445    1.3967   30.9255 C   0  0  0  0  0  0  0  0  0  0  0  0
  -30.2686    2.3759   30.9837 C   0  0  0  0  0  0  0  0  0  0  0  0
  1  2  1  0
  1  3  1  0
  2  5  1  0
  4  6  1  0
  5  6  1  0
  2  7  1  0
  7  8  2  0
  7  9  1  0
  2 10  1  0
  3  4  1  0
 10 11  2  0
 11 12  1  0
 12 13  2  0
 13 15  1  0
 15 14  2  0
 14 10  1  0
M  END

$$$$
