No_4945-gen_results/8p0m/2024-11-27-11-27-31/
     RDKit          3D

 23 25  0  0  0  0  0  0  0  0999 V2000
  -28.0162   -0.8135   28.8779 C   0  0  0  0  0  0  0  0  0  0  0  0
  -28.4690   -0.7850   29.8287 C   0  0  0  0  0  0  0  0  0  0  0  0
  -26.5455   -0.8762   28.8500 C   0  0  0  0  0  0  0  0  0  0  0  0
  -25.8041   -1.0324   30.0571 C   0  0  0  0  0  0  0  0  0  0  0  0
  -27.9437   -0.9869   31.2075 C   0  0  0  0  0  0  0  0  0  0  0  0
  -24.4008   -1.0969   30.0965 C   0  0  0  0  0  0  0  0  0  0  0  0
  -26.5612   -1.0746   31.2270 C   0  0  0  0  0  0  0  0  0  0  0  0
  -23.7186    0.1121   29.8577 C   0  0  0  0  0  0  0  0  0  0  0  0
  -22.4354    0.1410   29.2414 C   0  0  0  0  0  0  0  0  0  0  0  0
  -21.8243    1.3185   28.9009 C   0  0  0  0  0  0  0  0  0  0  0  0
  -24.2152    1.3866   30.2825 C   0  0  0  0  0  0  0  0  0  0  0  0
  -23.6920    2.5913   29.8574 C   0  0  0  0  0  0  0  0  0  0  0  0
  -22.4485    2.5510   29.1858 C   0  0  0  0  0  0  0  0  0  0  0  0
  -30.0882   -0.7019   29.8725 C   0  0  0  0  0  0  0  0  0  0  0  0
  -30.6161    0.2563   30.5011 O   0  0  0  0  0  0  0  0  0  0  0  0
  -30.7113   -1.5076   29.2068 O   0  0  0  0  0  0  0  0  0  0  0  0
  -25.7446   -0.7628   27.5861 C   0  0  0  0  0  0  0  0  0  0  0  0
  -24.7971   -0.8930   27.2529 N   0  0  0  0  0  0  0  0  0  0  0  0
  -26.5347   -0.0819   26.6074 N   0  0  0  0  0  0  0  0  0  0  0  0
  -25.7827    0.0051   25.4634 C   0  0  0  0  0  0  0  0  0  0  0  0
  -24.5352   -0.3153   25.9845 C   0  0  0  0  0  0  0  0  0  0  0  0
  -23.9633   -1.6112   31.4826 C   0  0  0  0  0  0  0  0  0  0  0  0
  -23.9378   -2.3331   29.2277 C   0  0  0  0  0  0  0  0  0  0  0  0
  4  6  1  0
  6  8  1  0
  2 14  1  0
 14 15  1  0
 14 16  2  0
  3 17  1  0
 17 18  2  0
 17 19  1  0
 19 20  1  0
 18 21  1  0
 20 21  2  0
  6 22  1  0
  6 23  1  0
  8  9  2  0
  9 10  1  0
 10 13  2  0
 13 12  1  0
 12 11  2  0
 11  8  1  0
  1  2  2  0
  2  5  1  0
  5  7  2  0
  7  4  1  0
  4  3  2  0
  3  1  1  0
M  END

$$$$
