No_4755-gen_results/8p0m/2024-11-27-11-27-31/
     RDKit          3D

 18 18  0  0  0  0  0  0  0  0999 V2000
  -28.0162   -0.8135   28.8779 C   0  0  0  0  0  0  0  0  0  0  0  0
  -28.4690   -0.7850   29.8287 C   0  0  0  0  0  0  0  0  0  0  0  0
  -26.5455   -0.8762   28.8500 C   0  0  0  0  0  0  0  0  0  0  0  0
  -25.8041   -1.0324   30.0571 C   0  0  0  0  0  0  0  0  0  0  0  0
  -24.3697   -1.0998   30.0718 C   0  0  0  0  0  0  0  0  0  0  0  0
  -27.9902   -1.0051   31.2092 C   0  0  0  0  0  0  0  0  0  0  0  0
  -26.5616   -1.1368   31.2600 C   0  0  0  0  0  0  0  0  0  0  0  0
  -23.7274    0.1713   30.0259 C   0  0  0  0  0  0  0  0  0  0  0  0
  -23.2449    0.7308   28.8689 C   0  0  0  0  0  0  0  0  0  0  0  0
  -23.6630    1.9630   28.3780 C   0  0  0  0  0  0  0  0  0  0  0  0
  -24.7937    2.4935   28.8829 C   0  0  0  0  0  0  0  0  0  0  0  0
  -25.3422    3.6703   28.3055 C   0  0  0  0  0  0  0  0  0  0  0  0
  -26.3990    4.3343   28.9485 C   0  0  0  0  0  0  0  0  0  0  0  0
  -27.0099    5.3669   28.4802 C   0  0  0  0  0  0  0  0  0  0  0  0
  -25.6171   -0.7416   27.4176 Cl  0  0  0  0  0  0  0  0  0  0  0  0
  -28.0644    6.0446   29.1616 C   0  0  0  0  0  0  0  0  0  0  0  0
  -28.5621    5.4247   30.2997 C   0  0  0  0  0  0  0  0  0  0  0  0
  -27.9825    4.3051   30.8303 C   0  0  0  0  0  0  0  0  0  0  0  0
  4  5  1  0
  5  8  1  0
  8  9  1  0
  9 10  1  0
 10 11  1  0
 11 12  2  3
 12 13  1  0
 13 14  2  3
  3 15  1  0
 14 16  1  0
 16 17  2  3
 17 18  1  0
  1  2  2  0
  2  6  1  0
  6  7  2  0
  7  4  1  0
  4  3  2  0
  3  1  1  0
M  END

$$$$
