No_4027-gen_results/8p0m/2024-11-27-11-27-31/
     RDKit          3D

 26 28  0  0  0  0  0  0  0  0999 V2000
  -28.0544   -1.0498   28.7246 N   0  0  0  0  0  0  0  0  0  0  0  0
  -28.6544   -0.5669   29.5076 C   0  0  0  0  0  0  0  0  0  0  0  0
  -26.6945   -1.3221   29.0236 C   0  0  0  0  0  0  0  0  0  0  0  0
  -26.2777   -1.0466   30.3588 C   0  0  0  0  0  0  0  0  0  0  0  0
  -28.4901   -0.2263   30.8324 N   0  0  0  0  0  0  0  0  0  0  0  0
  -27.1674   -0.4534   31.2643 C   0  0  0  0  0  0  0  0  0  0  0  0
  -30.0009   -0.3767   29.1188 F   0  0  0  0  0  0  0  0  0  0  0  0
  -24.8535   -1.2568   30.7337 C   0  0  0  0  0  0  0  0  0  0  0  0
  -24.1585   -2.0633   30.2525 O   0  0  0  0  0  0  0  0  0  0  0  0
  -24.4587   -0.5985   31.8605 O   0  0  0  0  0  0  0  0  0  0  0  0
  -29.4600    0.3423   31.7377 C   0  0  0  0  0  0  0  0  0  0  0  0
  -29.1017    0.4458   33.0309 C   0  0  0  0  0  0  0  0  0  0  0  0
  -27.8710    0.6977   33.3688 C   0  0  0  0  0  0  0  0  0  0  0  0
  -26.7979   -0.1768   32.6849 C   0  0  0  0  0  0  0  0  0  0  0  0
  -23.4097    0.4012   31.3937 C   0  0  0  0  0  0  0  0  0  0  0  0
  -30.0387    1.5715   33.7085 C   0  0  0  0  0  0  0  0  0  0  0  0
  -30.9735    1.0814   34.1045 F   0  0  0  0  0  0  0  0  0  0  0  0
  -29.3376    2.1050   34.7586 F   0  0  0  0  0  0  0  0  0  0  0  0
  -30.1918    2.5812   32.8239 F   0  0  0  0  0  0  0  0  0  0  0  0
  -29.4750   -0.9521   33.6730 C   0  0  0  0  0  0  0  0  0  0  0  0
  -28.8165   -1.3336   34.7674 C   0  0  0  0  0  0  0  0  0  0  0  0
  -29.1830   -2.6773   35.2276 C   0  0  0  0  0  0  0  0  0  0  0  0
  -30.4378   -2.9068   35.2044 C   0  0  0  0  0  0  0  0  0  0  0  0
  -30.9260   -1.1986   33.9928 C   0  0  0  0  0  0  0  0  0  0  0  0
  -31.1671   -2.6289   34.0981 C   0  0  0  0  0  0  0  0  0  0  0  0
  -31.8009   -0.3271   33.6998 O   0  0  0  0  0  0  0  0  0  0  0  0
  1  2  1  0
  3  4  1  0
  2  5  1  0
  5  6  1  0
  2  7  1  0
  4  8  1  0
  8  9  2  0
  8 10  1  0
  5 11  1  0
 11 12  1  0
 12 13  1  0
  6 14  1  0
 13 14  1  0
 10 15  1  0
 12 16  1  0
 16 17  1  0
 16 18  1  0
 16 19  1  0
 12 20  1  0
 20 21  1  0
 22 23  1  0
 20 24  1  0
 23 25  1  0
 24 25  1  0
 24 26  2  0
  1  3  1  0
  4  6  1  0
 21 22  1  0
M  END

$$$$
