No_4859-gen_results/8p0m/2024-11-27-11-27-31/
     RDKit          3D

 17 19  0  0  0  0  0  0  0  0999 V2000
  -28.0162   -0.8135   28.8779 C   0  0  0  0  0  0  0  0  0  0  0  0
  -28.4690   -0.7850   29.8287 C   0  0  0  0  0  0  0  0  0  0  0  0
  -26.5042   -0.7777   28.8766 C   0  0  0  0  0  0  0  0  0  0  0  0
  -25.8103   -0.8531   30.1028 C   0  0  0  0  0  0  0  0  0  0  0  0
  -27.9906   -0.8916   31.2257 C   0  0  0  0  0  0  0  0  0  0  0  0
  -26.6042   -0.8676   31.2652 C   0  0  0  0  0  0  0  0  0  0  0  0
  -30.0739   -0.8360   29.8615 C   0  0  0  0  0  0  0  0  0  0  0  0
  -30.6891   -1.6554   30.2229 O   0  0  0  0  0  0  0  0  0  0  0  0
  -30.5868    0.0939   28.8678 N   0  0  0  0  0  0  0  0  0  0  0  0
  -31.9585    0.0495   28.5916 C   0  0  0  0  0  0  0  0  0  0  0  0
  -32.2307    0.3503   27.3307 C   0  0  0  0  0  0  0  0  0  0  0  0
  -31.2885    0.8825   26.5640 C   0  0  0  0  0  0  0  0  0  0  0  0
  -29.9374    0.9614   26.8104 C   0  0  0  0  0  0  0  0  0  0  0  0
  -29.6395    0.5121   27.9832 C   0  0  0  0  0  0  0  0  0  0  0  0
  -28.2376    0.1616   28.1687 C   0  0  0  0  0  0  0  0  0  0  0  0
  -27.5153    1.2002   27.5421 C   0  0  0  0  0  0  0  0  0  0  0  0
  -26.3058    1.6684   28.1609 C   0  0  0  0  0  0  0  0  0  0  0  0
  2  7  1  0
  7  8  2  0
  7  9  1  0
  9 10  1  0
 10 11  1  0
 12 13  1  0
  9 14  1  0
  1 15  1  0
 14 15  1  0
 15 16  1  0
 16 17  1  0
 11 12  1  0
 13 14  1  0
  1  2  2  0
  2  5  1  0
  5  6  2  0
  6  4  1  0
  4  3  2  0
  3  1  1  0
M  END

$$$$
