No_4227-gen_results/8p0m/2024-11-27-11-27-31/
     RDKit          3D

  7  7  0  0  0  0  0  0  0  0999 V2000
  -28.1493   -0.8198   28.9079 Cl  0  0  0  0  0  0  0  0  0  0  0  0
  -26.9116   -0.0797   28.9452 C   0  0  0  0  0  0  0  0  0  0  0  0
  -26.7384    1.0439   29.2534 C   0  0  0  0  0  0  0  0  0  0  0  0
  -25.4244    1.5757   29.4244 C   0  0  0  0  0  0  0  0  0  0  0  0
  -24.2627    0.8479   29.0317 C   0  0  0  0  0  0  0  0  0  0  0  0
  -24.4866   -0.4397   28.6728 C   0  0  0  0  0  0  0  0  0  0  0  0
  -25.7216   -0.9285   28.6162 C   0  0  0  0  0  0  0  0  0  0  0  0
  1  2  1  0
  2  3  2  0
  3  4  1  0
  4  5  2  0
  5  6  1  0
  6  7  2  0
  7  2  1  0
M  END

$$$$
