No_4282-gen_results/8p0m/2024-11-27-11-27-31/
     RDKit          3D

 31 33  0  0  0  0  0  0  0  0999 V2000
  -28.0162   -0.8135   28.8779 C   0  0  0  0  0  0  0  0  0  0  0  0
  -27.0636   -0.1190   28.6079 C   0  0  0  0  0  0  0  0  0  0  0  0
  -25.7647   -0.3897   29.0360 C   0  0  0  0  0  0  0  0  0  0  0  0
  -25.5296   -1.5302   29.9014 C   0  0  0  0  0  0  0  0  0  0  0  0
  -26.6888   -2.2893   30.1810 C   0  0  0  0  0  0  0  0  0  0  0  0
  -27.8727   -1.9508   29.7373 C   0  0  0  0  0  0  0  0  0  0  0  0
  -24.6993    0.3604   28.7753 F   0  0  0  0  0  0  0  0  0  0  0  0
  -29.0333   -2.8145   30.1506 C   0  0  0  0  0  0  0  0  0  0  0  0
  -28.8462   -4.0175   29.8247 F   0  0  0  0  0  0  0  0  0  0  0  0
  -29.2598   -2.6493   31.4828 F   0  0  0  0  0  0  0  0  0  0  0  0
  -30.1634   -2.4642   29.5989 F   0  0  0  0  0  0  0  0  0  0  0  0
  -27.2211    1.2714   27.5525 Cl  0  0  0  0  0  0  0  0  0  0  0  0
  -24.3459   -1.8036   30.3774 O   0  0  0  0  0  0  0  0  0  0  0  0
  -23.7137   -0.9009   31.2081 C   0  0  0  0  0  0  0  0  0  0  0  0
  -24.1305   -0.7132   32.4799 C   0  0  0  0  0  0  0  0  0  0  0  0
  -22.5418   -0.2370   30.5653 C   0  0  0  0  0  0  0  0  0  0  0  0
  -21.9624   -0.6670   29.4542 C   0  0  0  0  0  0  0  0  0  0  0  0
  -21.1062    0.2357   28.7036 C   0  0  0  0  0  0  0  0  0  0  0  0
  -21.6717    1.3865   28.1542 C   0  0  0  0  0  0  0  0  0  0  0  0
  -22.6105    2.0119   28.7796 N   0  0  0  0  0  0  0  0  0  0  0  0
  -21.3685    1.9112   26.9616 N   0  0  0  0  0  0  0  0  0  0  0  0
  -22.4764    2.5292   26.3902 C   0  0  0  0  0  0  0  0  0  0  0  0
  -23.3426    2.7007   27.5860 C   0  0  0  0  0  0  0  0  0  0  0  0
  -24.4191    3.4576   27.6881 N   0  0  0  0  0  0  0  0  0  0  0  0
  -25.0220    3.7945   28.8542 C   0  0  0  0  0  0  0  0  0  0  0  0
  -24.9688    3.9655   26.4963 C   0  0  0  0  0  0  0  0  0  0  0  0
  -26.1004    4.7290   28.8699 C   0  0  0  0  0  0  0  0  0  0  0  0
  -26.6247    5.1782   27.6695 C   0  0  0  0  0  0  0  0  0  0  0  0
  -24.4262    3.5508   25.3800 N   0  0  0  0  0  0  0  0  0  0  0  0
  -26.0608    4.8373   26.5318 C   0  0  0  0  0  0  0  0  0  0  0  0
  -23.0431    2.9939   25.3208 N   0  0  0  0  0  0  0  0  0  0  0  0
  3  7  1  0
  6  8  1  0
  8  9  1  0
  8 10  1  0
  8 11  1  0
  2 12  1  0
  4 13  1  0
 13 14  1  0
 14 15  1  0
 14 16  1  0
 16 17  1  0
 17 18  2  3
 18 19  1  0
 19 20  2  0
 19 21  1  0
 21 22  2  0
 20 23  1  0
 22 23  1  0
 23 24  1  0
 24 25  1  0
 24 26  1  0
 27 28  1  0
 26 29  1  0
 26 30  1  0
 28 30  1  0
 29 31  2  0
 25 27  1  0
  1  2  2  0
  2  3  1  0
  3  4  2  0
  4  5  1  0
  5  6  2  0
  6  1  1  0
M  END

$$$$
