No_4031-gen_results/8p0m/2024-11-27-11-27-31/
     RDKit          3D

 21 23  0  0  0  0  0  0  0  0999 V2000
  -28.0162   -0.8135   28.8779 C   0  0  0  0  0  0  0  0  0  0  0  0
  -27.0636   -0.1189   28.6079 C   0  0  0  0  0  0  0  0  0  0  0  0
  -27.0010    0.6913   27.4910 C   0  0  0  0  0  0  0  0  0  0  0  0
  -25.8548    1.4825   27.0830 C   0  0  0  0  0  0  0  0  0  0  0  0
  -24.6901    1.4526   27.8807 C   0  0  0  0  0  0  0  0  0  0  0  0
  -24.7379    0.6010   29.0416 C   0  0  0  0  0  0  0  0  0  0  0  0
  -25.8234   -0.1688   29.3887 C   0  0  0  0  0  0  0  0  0  0  0  0
  -29.2150   -0.1726   29.0132 N   0  0  0  0  0  0  0  0  0  0  0  0
  -29.6839    0.2429   30.1439 C   0  0  0  0  0  0  0  0  0  0  0  0
  -29.1319    0.4205   31.1001 C   0  0  0  0  0  0  0  0  0  0  0  0
  -29.2073    0.8633   32.1754 C   0  0  0  0  0  0  0  0  0  0  0  0
  -28.3040    0.9465   33.3688 C   0  0  0  0  0  0  0  0  0  0  0  0
  -27.0152    0.3702   33.1575 C   0  0  0  0  0  0  0  0  0  0  0  0
  -26.7781   -0.2105   31.9779 C   0  0  0  0  0  0  0  0  0  0  0  0
  -27.6392   -0.2405   31.0068 C   0  0  0  0  0  0  0  0  0  0  0  0
  -26.6820   -0.0034   29.8938 C   0  0  0  0  0  0  0  0  0  0  0  0
  -26.4049    1.4746   30.0014 O   0  0  0  0  0  0  0  0  0  0  0  0
  -26.4545   -1.4042   30.2633 C   0  0  0  0  0  0  0  0  0  0  0  0
  -25.5091   -2.3262   30.0232 C   0  0  0  0  0  0  0  0  0  0  0  0
  -27.1706   -1.8501   31.1440 C   0  0  0  0  0  0  0  0  0  0  0  0
  -28.4656   -2.4350   31.0324 C   0  0  0  0  0  0  0  0  0  0  0  0
  1  2  1  0
  1  8  1  0
  8  9  1  0
  7 16  1  0
 15 16  1  0
 16 17  1  0
 16 18  1  0
 18 19  1  0
 18 20  1  0
 20 21  1  0
  9 10  1  0
  2  3  2  0
  3  4  1  0
  4  5  2  0
  5  6  1  0
  6  7  2  0
  7  2  1  0
 10 11  2  0
 11 12  1  0
 12 13  2  0
 13 14  1  0
 14 15  2  0
 15 10  1  0
M  END

$$$$
