No_453-gen_results/8p0m/2024-11-27-11-27-31/
     RDKit          3D

 15 14  0  0  0  0  0  0  0  0999 V2000
  -28.0162   -0.8135   28.8779 C   0  0  0  0  0  0  0  0  0  0  0  0
  -27.0636   -0.1190   28.6079 C   0  0  0  0  0  0  0  0  0  0  0  0
  -27.0788    0.9846   29.1738 F   0  0  0  0  0  0  0  0  0  0  0  0
  -25.9956   -0.3885   27.6940 C   0  0  0  0  0  0  0  0  0  0  0  0
  -25.6788    0.5746   26.7076 C   0  0  0  0  0  0  0  0  0  0  0  0
  -28.5039   -0.8072   30.3260 C   0  0  0  0  0  0  0  0  0  0  0  0
  -29.1262    0.1073   30.4655 F   0  0  0  0  0  0  0  0  0  0  0  0
  -27.4113   -0.9160   31.1260 F   0  0  0  0  0  0  0  0  0  0  0  0
  -29.1794   -2.0244   30.5633 F   0  0  0  0  0  0  0  0  0  0  0  0
  -26.4019    0.6832   25.7469 C   0  0  0  0  0  0  0  0  0  0  0  0
  -27.5314    0.7607   25.6633 C   0  0  0  0  0  0  0  0  0  0  0  0
  -28.4028    0.8404   24.9983 C   0  0  0  0  0  0  0  0  0  0  0  0
  -29.8327    0.9446   25.1830 C   0  0  0  0  0  0  0  0  0  0  0  0
  -30.1829    1.0130   26.5005 C   0  0  0  0  0  0  0  0  0  0  0  0
  -29.2571    0.9245   27.5051 C   0  0  0  0  0  0  0  0  0  0  0  0
  1  2  1  0
  2  3  1  0
  2  4  1  0
  4  5  1  0
  1  6  1  0
  6  7  1  0
  6  8  1  0
  6  9  1  0
  5 10  2  3
 10 11  1  0
 11 12  2  3
 12 13  1  0
 13 14  2  3
 14 15  1  0
M  END

$$$$
