No_4226-gen_results/8p0m/2024-11-27-11-27-31/
     RDKit          3D

 19 20  0  0  0  0  0  0  0  0999 V2000
  -28.0162   -0.8135   28.8779 C   0  0  0  0  0  0  0  0  0  0  0  0
  -27.0636   -0.1190   28.6079 C   0  0  0  0  0  0  0  0  0  0  0  0
  -25.7647   -0.3897   29.0360 C   0  0  0  0  0  0  0  0  0  0  0  0
  -25.5296   -1.5302   29.9014 C   0  0  0  0  0  0  0  0  0  0  0  0
  -26.6888   -2.2893   30.1810 C   0  0  0  0  0  0  0  0  0  0  0  0
  -26.4988   -3.4805   30.9196 C   0  0  0  0  0  0  0  0  0  0  0  0
  -27.9248   -1.9917   29.6873 C   0  0  0  0  0  0  0  0  0  0  0  0
  -27.1308    1.1698   27.7861 C   0  0  0  0  0  0  0  0  0  0  0  0
  -26.4249    1.1978   26.9045 F   0  0  0  0  0  0  0  0  0  0  0  0
  -26.8923    2.2417   28.5526 F   0  0  0  0  0  0  0  0  0  0  0  0
  -28.4378    1.3285   27.3734 F   0  0  0  0  0  0  0  0  0  0  0  0
  -27.6133   -4.2883   30.9439 O   0  0  0  0  0  0  0  0  0  0  0  0
  -28.8019   -3.8031   31.1778 C   0  0  0  0  0  0  0  0  0  0  0  0
  -29.0814   -2.6899   30.1294 C   0  0  0  0  0  0  0  0  0  0  0  0
  -29.8670   -4.8886   31.0326 C   0  0  0  0  0  0  0  0  0  0  0  0
  -30.4799   -5.1176   30.0401 O   0  0  0  0  0  0  0  0  0  0  0  0
  -29.9516   -5.7268   32.1099 N   0  0  0  0  0  0  0  0  0  0  0  0
  -30.7803   -6.9868   32.0472 C   0  0  0  0  0  0  0  0  0  0  0  0
  -29.3574   -5.5242   33.4674 C   0  0  0  0  0  0  0  0  0  0  0  0
  5  6  1  0
  2  8  1  0
  8  9  1  0
  8 10  1  0
  8 11  1  0
  6 12  1  0
 12 13  1  0
  7 14  1  0
 13 14  2  0
 13 15  1  0
 15 16  2  0
 15 17  1  0
 17 18  1  0
 17 19  1  0
  1  2  2  0
  2  3  1  0
  3  4  2  0
  4  5  1  0
  5  7  2  0
  7  1  1  0
M  END

$$$$
