No_4194-gen_results/8p0m/2024-11-27-11-27-31/
     RDKit          3D

 20 24  0  0  0  0  0  0  0  0999 V2000
  -28.0162   -0.8135   28.8779 C   0  0  0  0  0  0  0  0  0  0  0  0
  -27.0636   -0.1189   28.6079 C   0  0  0  0  0  0  0  0  0  0  0  0
  -26.8756    1.1325   28.9134 C   0  0  0  0  0  0  0  0  0  0  0  0
  -27.9014    1.8066   29.6436 C   0  0  0  0  0  0  0  0  0  0  0  0
  -29.0458   -0.2316   29.7181 C   0  0  0  0  0  0  0  0  0  0  0  0
  -28.9402    1.0517   30.0597 C   0  0  0  0  0  0  0  0  0  0  0  0
  -26.0208   -0.6774   27.8774 F   0  0  0  0  0  0  0  0  0  0  0  0
  -30.0213    1.6852   30.8724 C   0  0  0  0  0  0  0  0  0  0  0  0
  -29.6997    2.5986   31.6020 N   0  0  0  0  0  0  0  0  0  0  0  0
  -31.1674    1.2005   30.7839 O   0  0  0  0  0  0  0  0  0  0  0  0
  -28.4559    3.2292   31.8871 C   0  0  0  0  0  0  0  0  0  0  0  0
  -28.3657    4.2206   32.9625 C   0  0  0  0  0  0  0  0  0  0  0  0
  -27.1076    4.7371   33.2269 C   0  0  0  0  0  0  0  0  0  0  0  0
  -25.8994    4.3826   32.5188 C   0  0  0  0  0  0  0  0  0  0  0  0
  -26.0495    3.4273   31.5433 C   0  0  0  0  0  0  0  0  0  0  0  0
  -27.2518    2.8790   31.3198 C   0  0  0  0  0  0  0  0  0  0  0  0
  -27.2534    2.1592   30.2037 N   0  0  0  0  0  0  0  0  0  0  0  0
  -25.7799    2.1391   29.9754 C   0  0  0  0  0  0  0  0  0  0  0  0
  -25.0695    2.8954   30.6626 C   0  0  0  0  0  0  0  0  0  0  0  0
  -27.2204    1.7155   32.3022 O   0  0  0  0  0  0  0  0  0  0  0  0
  2  7  1  0
  6  8  1  0
  8  9  1  0
  8 10  2  0
  9 11  1  0
 12 13  1  0
 14 15  1  0
 11 16  1  0
 15 16  1  0
  4 17  1  0
 16 17  1  0
  3 18  1  0
 17 18  1  0
 15 19  1  0
 18 19  1  0
 16 20  1  0
 11 12  1  0
 13 14  1  0
  1  2  2  0
  2  3  1  0
  3  4  2  0
  4  6  1  0
  6  5  2  0
  5  1  1  0
M  END

$$$$
