No_4919-gen_results/8p0m/2024-11-27-11-27-31/
     RDKit          3D

 16 17  0  0  0  0  0  0  0  0999 V2000
  -28.0162   -0.8135   28.8779 C   0  0  0  0  0  0  0  0  0  0  0  0
  -27.0636   -0.1190   28.6079 C   0  0  0  0  0  0  0  0  0  0  0  0
  -26.9716    0.7139   27.5060 C   0  0  0  0  0  0  0  0  0  0  0  0
  -28.1053    0.7744   26.6421 C   0  0  0  0  0  0  0  0  0  0  0  0
  -29.2008    0.1044   27.0527 C   0  0  0  0  0  0  0  0  0  0  0  0
  -29.2096   -0.6029   28.1853 C   0  0  0  0  0  0  0  0  0  0  0  0
  -30.4845    0.1494   26.3508 C   0  0  0  0  0  0  0  0  0  0  0  0
  -31.4214   -0.5459   26.6096 N   0  0  0  0  0  0  0  0  0  0  0  0
  -30.5157    0.9830   25.0725 C   0  0  0  0  0  0  0  0  0  0  0  0
  -31.6985    0.9663   24.3292 C   0  0  0  0  0  0  0  0  0  0  0  0
  -32.6006   -0.5804   25.8402 C   0  0  0  0  0  0  0  0  0  0  0  0
  -32.7294    0.1894   24.7603 C   0  0  0  0  0  0  0  0  0  0  0  0
  -25.7067    1.4017   27.0849 C   0  0  0  0  0  0  0  0  0  0  0  0
  -25.7943    2.0463   26.0856 F   0  0  0  0  0  0  0  0  0  0  0  0
  -25.3806    2.2705   28.0760 F   0  0  0  0  0  0  0  0  0  0  0  0
  -24.6719    0.5562   27.0303 F   0  0  0  0  0  0  0  0  0  0  0  0
  5  7  1  0
  3 13  1  0
 13 14  1  0
 13 15  1  0
 13 16  1  0
  1  2  2  0
  2  3  1  0
  3  4  2  0
  4  5  1  0
  5  6  2  0
  6  1  1  0
  7  8  2  0
  8 11  1  0
 11 12  2  0
 12 10  1  0
 10  9  2  0
  9  7  1  0
M  END

$$$$
