No_4218-gen_results/8p0m/2024-11-27-11-27-31/
     RDKit          3D

 19 20  0  0  0  0  0  0  0  0999 V2000
  -28.0162   -0.8135   28.8779 C   0  0  0  0  0  0  0  0  0  0  0  0
  -28.4690   -0.7850   29.8287 C   0  0  0  0  0  0  0  0  0  0  0  0
  -27.1356    0.2359   28.5352 C   0  0  0  0  0  0  0  0  0  0  0  0
  -26.8745    1.2825   29.3982 C   0  0  0  0  0  0  0  0  0  0  0  0
  -28.3613    0.1987   30.9244 C   0  0  0  0  0  0  0  0  0  0  0  0
  -27.5277    1.2234   30.6356 C   0  0  0  0  0  0  0  0  0  0  0  0
  -26.4181    0.0763   27.2578 C   0  0  0  0  0  0  0  0  0  0  0  0
  -25.0141    0.0394   27.3317 C   0  0  0  0  0  0  0  0  0  0  0  0
  -26.7847    1.1042   26.2158 C   0  0  0  0  0  0  0  0  0  0  0  0
  -24.4019   -0.7394   28.3824 C   0  0  0  0  0  0  0  0  0  0  0  0
  -23.0327   -0.5235   28.7354 C   0  0  0  0  0  0  0  0  0  0  0  0
  -22.3105    0.5040   28.0678 C   0  0  0  0  0  0  0  0  0  0  0  0
  -22.9737    1.3511   27.1575 C   0  0  0  0  0  0  0  0  0  0  0  0
  -24.2790    1.2121   26.9101 C   0  0  0  0  0  0  0  0  0  0  0  0
  -25.0140    2.0553   26.0451 C   0  0  0  0  0  0  0  0  0  0  0  0
  -25.6652    1.9809   25.9412 Cl  0  0  0  0  0  0  0  0  0  0  0  0
  -28.0771    1.0852   25.6725 C   0  0  0  0  0  0  0  0  0  0  0  0
  -26.7764    0.0935   26.3067 Cl  0  0  0  0  0  0  0  0  0  0  0  0
  -27.2537    2.5569   26.8232 C   0  0  0  0  0  0  0  0  0  0  0  0
  3  7  1  0
  7  8  1  0
  7  9  1  0
 14 15  1  0
 15 16  1  0
  9 17  2  0
  7 18  1  0
  9 19  1  0
  8 10  2  0
 10 11  1  0
 11 12  2  0
 12 13  1  0
 13 14  2  0
 14  8  1  0
  1  2  2  0
  2  5  1  0
  5  6  2  0
  6  4  1  0
  4  3  2  0
  3  1  1  0
M  END

$$$$
