No_4643-gen_results/8p0m/2024-11-27-11-27-31/
     RDKit          3D

 29 31  0  0  0  0  0  0  0  0999 V2000
  -28.0162   -0.8135   28.8779 C   0  0  0  0  0  0  0  0  0  0  0  0
  -28.4690   -0.7850   29.8287 C   0  0  0  0  0  0  0  0  0  0  0  0
  -28.1816    0.4277   28.1134 C   0  0  0  0  0  0  0  0  0  0  0  0
  -27.4498    0.6435   26.8500 C   0  0  0  0  0  0  0  0  0  0  0  0
  -26.1815    0.0357   26.7145 C   0  0  0  0  0  0  0  0  0  0  0  0
  -25.7800   -0.9326   27.6938 C   0  0  0  0  0  0  0  0  0  0  0  0
  -26.5568   -1.2134   28.7413 C   0  0  0  0  0  0  0  0  0  0  0  0
  -28.4904   -1.9180   30.6356 O   0  0  0  0  0  0  0  0  0  0  0  0
  -29.6735   -0.1585   30.1314 O   0  0  0  0  0  0  0  0  0  0  0  0
  -25.2996    0.3028   25.5958 C   0  0  0  0  0  0  0  0  0  0  0  0
  -24.6071    1.3368   25.2968 N   0  0  0  0  0  0  0  0  0  0  0  0
  -24.5294    2.3202   26.2839 C   0  0  0  0  0  0  0  0  0  0  0  0
  -23.6246    2.4716   27.2493 C   0  0  0  0  0  0  0  0  0  0  0  0
  -22.6950    1.4198   27.4901 C   0  0  0  0  0  0  0  0  0  0  0  0
  -22.0128    1.2335   28.7577 C   0  0  0  0  0  0  0  0  0  0  0  0
  -21.3437    0.0420   28.8296 C   0  0  0  0  0  0  0  0  0  0  0  0
  -25.3991   -0.5608   24.6801 O   0  0  0  0  0  0  0  0  0  0  0  0
  -25.4626    3.3663   26.1069 N   0  0  0  0  0  0  0  0  0  0  0  0
  -25.4313    4.4795   26.9153 C   0  0  0  0  0  0  0  0  0  0  0  0
  -26.2707    5.5019   26.7786 N   0  0  0  0  0  0  0  0  0  0  0  0
  -24.3536    4.6216   27.8296 C   0  0  0  0  0  0  0  0  0  0  0  0
  -23.6119    3.6492   28.0661 C   0  0  0  0  0  0  0  0  0  0  0  0
  -26.1872    6.7265   27.4272 C   0  0  0  0  0  0  0  0  0  0  0  0
  -26.9450    7.2373   28.1765 C   0  0  0  0  0  0  0  0  0  0  0  0
  -28.2087    6.6275   28.4859 C   0  0  0  0  0  0  0  0  0  0  0  0
  -29.2148    7.2266   29.2302 C   0  0  0  0  0  0  0  0  0  0  0  0
  -28.8803    8.4574   29.8569 C   0  0  0  0  0  0  0  0  0  0  0  0
  -27.7319    9.1293   29.6573 C   0  0  0  0  0  0  0  0  0  0  0  0
  -26.7442    8.5788   28.8282 C   0  0  0  0  0  0  0  0  0  0  0  0
  1  2  1  0
  2  8  1  0
  2  9  2  0
  5 10  1  0
 10 11  1  0
 11 12  1  0
 13 14  1  0
 14 15  2  3
 15 16  1  0
 10 17  2  0
 19 20  1  0
 20 23  1  0
 23 24  1  0
 24 25  2  0
 25 26  1  0
 26 27  2  0
 27 28  1  0
 28 29  2  0
 29 24  1  0
 12 13  2  0
 13 22  1  0
 22 21  2  0
 21 19  1  0
 19 18  2  0
 18 12  1  0
  1  3  2  0
  3  4  1  0
  4  5  2  0
  5  6  1  0
  6  7  2  0
  7  1  1  0
M  END

$$$$
