No_4806-gen_results/8p0m/2024-11-27-11-27-31/
     RDKit          3D

 25 27  0  0  0  0  0  0  0  0999 V2000
  -28.0162   -0.8135   28.8779 C   0  0  0  0  0  0  0  0  0  0  0  0
  -27.0636   -0.1190   28.6079 C   0  0  0  0  0  0  0  0  0  0  0  0
  -25.7923   -0.4302   29.0761 C   0  0  0  0  0  0  0  0  0  0  0  0
  -25.5756   -1.5654   29.9363 C   0  0  0  0  0  0  0  0  0  0  0  0
  -26.7354   -2.3004   30.2173 C   0  0  0  0  0  0  0  0  0  0  0  0
  -27.9184   -1.9537   29.7629 C   0  0  0  0  0  0  0  0  0  0  0  0
  -27.1463    1.2916   27.6407 Cl  0  0  0  0  0  0  0  0  0  0  0  0
  -29.0683   -2.7883   30.1813 C   0  0  0  0  0  0  0  0  0  0  0  0
  -30.1887   -2.3151   30.1701 N   0  0  0  0  0  0  0  0  0  0  0  0
  -28.8686   -3.9786   30.6030 O   0  0  0  0  0  0  0  0  0  0  0  0
  -31.4204   -3.0585   30.5216 C   0  0  0  0  0  0  0  0  0  0  0  0
  -32.4044   -2.4891   30.7664 C   0  0  0  0  0  0  0  0  0  0  0  0
  -33.3553   -2.9397   31.4881 C   0  0  0  0  0  0  0  0  0  0  0  0
  -34.5505   -2.2270   31.9197 C   0  0  0  0  0  0  0  0  0  0  0  0
  -34.6912   -0.9332   31.3838 C   0  0  0  0  0  0  0  0  0  0  0  0
  -33.7551   -0.3863   30.5785 C   0  0  0  0  0  0  0  0  0  0  0  0
  -32.5957   -0.9641   30.2695 C   0  0  0  0  0  0  0  0  0  0  0  0
  -31.5493   -4.3119   29.2077 Cl  0  0  0  0  0  0  0  0  0  0  0  0
  -36.1079   -0.0660   31.8387 Cl  0  0  0  0  0  0  0  0  0  0  0  0
  -24.5316    0.3543   28.7039 C   0  0  0  0  0  0  0  0  0  0  0  0
  -23.3928    0.0536   28.7275 C   0  0  0  0  0  0  0  0  0  0  0  0
  -22.2341    0.8682   28.3839 C   0  0  0  0  0  0  0  0  0  0  0  0
  -22.5632    1.8219   27.5182 C   0  0  0  0  0  0  0  0  0  0  0  0
  -23.8293    2.3146   27.3273 C   0  0  0  0  0  0  0  0  0  0  0  0
  -24.8272    1.5585   27.8680 C   0  0  0  0  0  0  0  0  0  0  0  0
  2  7  1  0
  6  8  1  0
  8  9  1  0
  8 10  2  0
  9 11  1  0
 11 12  1  0
 11 18  1  0
 15 19  1  0
  3 20  1  0
 12 13  2  0
 13 14  1  0
 14 15  2  0
 15 16  1  0
 16 17  2  0
 17 12  1  0
  1  2  2  0
  2  3  1  0
  3  4  2  0
  4  5  1  0
  5  6  2  0
  6  1  1  0
 20 21  2  0
 21 22  1  0
 22 23  2  0
 23 24  1  0
 24 25  2  0
 25 20  1  0
M  END

$$$$
