No_4335-gen_results/8p0m/2024-11-27-11-27-31/
     RDKit          3D

 17 18  0  0  0  0  0  0  0  0999 V2000
  -28.0162   -0.8135   28.8779 C   0  0  0  0  0  0  0  0  0  0  0  0
  -27.0636   -0.1189   28.6079 C   0  0  0  0  0  0  0  0  0  0  0  0
  -26.9716    0.7139   27.5060 C   0  0  0  0  0  0  0  0  0  0  0  0
  -28.1053    0.7744   26.6421 C   0  0  0  0  0  0  0  0  0  0  0  0
  -29.2008    0.1044   27.0527 C   0  0  0  0  0  0  0  0  0  0  0  0
  -29.2096   -0.6029   28.1853 C   0  0  0  0  0  0  0  0  0  0  0  0
  -30.3044    0.2267   26.2604 O   0  0  0  0  0  0  0  0  0  0  0  0
  -25.7141   -0.2197   29.4065 C   0  0  0  0  0  0  0  0  0  0  0  0
  -25.2431    0.9659   30.1090 C   0  0  0  0  0  0  0  0  0  0  0  0
  -24.2496    1.7710   29.5349 C   0  0  0  0  0  0  0  0  0  0  0  0
  -23.0486    1.1635   29.2393 C   0  0  0  0  0  0  0  0  0  0  0  0
  -23.1555   -0.2131   28.8077 C   0  0  0  0  0  0  0  0  0  0  0  0
  -24.4389   -0.5193   28.3786 C   0  0  0  0  0  0  0  0  0  0  0  0
  -25.6849   -1.4340   30.3863 C   0  0  0  0  0  0  0  0  0  0  0  0
  -26.0371    1.3950   31.2902 C   0  0  0  0  0  0  0  0  0  0  0  0
  -26.7373    2.5456   31.2552 C   0  0  0  0  0  0  0  0  0  0  0  0
  -27.6999    2.7516   32.1520 C   0  0  0  0  0  0  0  0  0  0  0  0
  5  7  1  0
  2  8  1  0
  8  9  1  0
  9 10  1  0
 10 11  1  0
 11 12  1  0
  8 13  1  0
 12 13  1  0
  8 14  1  0
  9 15  1  0
 15 16  1  0
 16 17  2  0
  1  2  2  0
  2  3  1  0
  3  4  2  0
  4  5  1  0
  5  6  2  0
  6  1  1  0
M  END

$$$$
