No_406-gen_results/8p0m/2024-11-27-11-27-31/
     RDKit          3D

 23 25  0  0  0  0  0  0  0  0999 V2000
  -28.0162   -0.8135   28.8779 C   0  0  0  0  0  0  0  0  0  0  0  0
  -27.0636   -0.1189   28.6079 C   0  0  0  0  0  0  0  0  0  0  0  0
  -25.7647   -0.3897   29.0360 C   0  0  0  0  0  0  0  0  0  0  0  0
  -25.5296   -1.5302   29.9014 C   0  0  0  0  0  0  0  0  0  0  0  0
  -26.6577   -2.2915   30.2035 C   0  0  0  0  0  0  0  0  0  0  0  0
  -27.8548   -1.9555   29.7630 C   0  0  0  0  0  0  0  0  0  0  0  0
  -24.5349    0.4128   28.7431 C   0  0  0  0  0  0  0  0  0  0  0  0
  -23.3062    0.0366   29.0393 C   0  0  0  0  0  0  0  0  0  0  0  0
  -22.1759    0.8277   28.6836 C   0  0  0  0  0  0  0  0  0  0  0  0
  -22.3552    1.8290   27.6875 C   0  0  0  0  0  0  0  0  0  0  0  0
  -24.5941    1.4954   27.7678 C   0  0  0  0  0  0  0  0  0  0  0  0
  -23.5500    2.1700   27.3300 C   0  0  0  0  0  0  0  0  0  0  0  0
  -29.0227   -2.7733   30.1850 C   0  0  0  0  0  0  0  0  0  0  0  0
  -30.0685   -2.4734   30.0322 O   0  0  0  0  0  0  0  0  0  0  0  0
  -28.6974   -3.9090   30.8289 O   0  0  0  0  0  0  0  0  0  0  0  0
  -23.7231    3.2218   26.4737 O   0  0  0  0  0  0  0  0  0  0  0  0
  -25.0262    3.7799   26.4360 C   0  0  0  0  0  0  0  0  0  0  0  0
  -25.3507    4.8717   27.2670 C   0  0  0  0  0  0  0  0  0  0  0  0
  -25.8480    4.7064   28.4433 C   0  0  0  0  0  0  0  0  0  0  0  0
  -26.0318    5.7747   29.3832 C   0  0  0  0  0  0  0  0  0  0  0  0
  -25.7071    7.0775   28.9516 C   0  0  0  0  0  0  0  0  0  0  0  0
  -25.1508    7.3227   27.6976 C   0  0  0  0  0  0  0  0  0  0  0  0
  -24.9090    6.2057   26.8454 C   0  0  0  0  0  0  0  0  0  0  0  0
  3  7  1  0
  6 13  1  0
 13 14  2  0
 13 15  1  0
 12 16  1  0
 16 17  1  0
 17 18  1  0
  7  8  2  0
  8  9  1  0
  9 10  2  0
 10 12  1  0
 12 11  2  0
 11  7  1  0
  1  2  2  0
  2  3  1  0
  3  4  2  0
  4  5  1  0
  5  6  2  0
  6  1  1  0
 18 19  2  0
 19 20  1  0
 20 21  2  0
 21 22  1  0
 22 23  2  0
 23 18  1  0
M  END

$$$$
