No_4489-gen_results/8p0m/2024-11-27-11-27-31/
     RDKit          3D

  6  6  0  0  0  0  0  0  0  0999 V2000
  -28.0162   -0.8135   28.8779 C   0  0  0  0  0  0  0  0  0  0  0  0
  -28.4690   -0.7850   29.8287 C   0  0  0  0  0  0  0  0  0  0  0  0
  -28.1915    0.1474   27.8714 C   0  0  0  0  0  0  0  0  0  0  0  0
  -29.2816    1.0120   27.9611 C   0  0  0  0  0  0  0  0  0  0  0  0
  -29.6441    0.0897   30.1590 C   0  0  0  0  0  0  0  0  0  0  0  0
  -29.9298    0.9926   29.1822 C   0  0  0  0  0  0  0  0  0  0  0  0
  1  2  2  0
  2  5  1  0
  5  6  2  0
  6  4  1  0
  4  3  2  0
  3  1  1  0
M  END

$$$$
