No_4912-gen_results/8p0m/2024-11-27-11-27-31/
     RDKit          3D

 15 16  0  0  0  0  0  0  0  0999 V2000
  -28.0162   -0.8135   28.8779 C   0  0  0  0  0  0  0  0  0  0  0  0
  -27.0636   -0.1189   28.6079 C   0  0  0  0  0  0  0  0  0  0  0  0
  -25.7923   -0.4302   29.0761 C   0  0  0  0  0  0  0  0  0  0  0  0
  -24.5456    0.3494   28.8225 C   0  0  0  0  0  0  0  0  0  0  0  0
  -23.2409    0.0217   29.3323 C   0  0  0  0  0  0  0  0  0  0  0  0
  -27.8820   -1.8995   29.8633 C   0  0  0  0  0  0  0  0  0  0  0  0
  -26.6526   -2.3141   30.3138 C   0  0  0  0  0  0  0  0  0  0  0  0
  -25.5153   -1.5607   29.9787 C   0  0  0  0  0  0  0  0  0  0  0  0
  -22.1645    0.7936   28.9524 C   0  0  0  0  0  0  0  0  0  0  0  0
  -22.1241    1.7484   27.9889 C   0  0  0  0  0  0  0  0  0  0  0  0
  -24.5235    1.3782   27.7946 C   0  0  0  0  0  0  0  0  0  0  0  0
  -23.3387    2.0417   27.4305 C   0  0  0  0  0  0  0  0  0  0  0  0
  -29.0437   -2.7312   30.2971 C   0  0  0  0  0  0  0  0  0  0  0  0
  -28.9838   -3.9479   30.3834 O   0  0  0  0  0  0  0  0  0  0  0  0
  -30.1308   -2.1424   30.6326 O   0  0  0  0  0  0  0  0  0  0  0  0
  3  4  1  0
  6 13  1  0
 13 14  2  0
 13 15  1  0
  1  2  2  0
  2  3  1  0
  3  8  2  0
  8  7  1  0
  7  6  2  0
  6  1  1  0
  4  5  2  0
  5  9  1  0
  9 10  2  0
 10 12  1  0
 12 11  2  0
 11  4  1  0
M  END

$$$$
