No_4060-gen_results/8p0m/2024-11-27-11-27-31/
     RDKit          3D

 17 18  0  0  0  0  0  0  0  0999 V2000
  -28.0162   -0.8135   28.8779 C   0  0  0  0  0  0  0  0  0  0  0  0
  -28.4690   -0.7850   29.8287 C   0  0  0  0  0  0  0  0  0  0  0  0
  -26.5042   -0.7777   28.8766 C   0  0  0  0  0  0  0  0  0  0  0  0
  -25.8103   -0.8531   30.1028 C   0  0  0  0  0  0  0  0  0  0  0  0
  -27.9906   -0.8916   31.2257 C   0  0  0  0  0  0  0  0  0  0  0  0
  -26.6042   -0.8676   31.2652 C   0  0  0  0  0  0  0  0  0  0  0  0
  -30.0739   -0.8360   29.8615 C   0  0  0  0  0  0  0  0  0  0  0  0
  -30.6825   -0.0696   30.6918 O   0  0  0  0  0  0  0  0  0  0  0  0
  -30.6203   -1.8425   29.3350 O   0  0  0  0  0  0  0  0  0  0  0  0
  -25.7588   -0.7654   27.7954 F   0  0  0  0  0  0  0  0  0  0  0  0
  -24.4015   -0.6991   29.9759 C   0  0  0  0  0  0  0  0  0  0  0  0
  -23.8593    0.6809   30.2719 C   0  0  0  0  0  0  0  0  0  0  0  0
  -22.7420    1.1416   29.5220 C   0  0  0  0  0  0  0  0  0  0  0  0
  -22.0075    0.2944   28.7263 C   0  0  0  0  0  0  0  0  0  0  0  0
  -20.9244    0.8818   28.0893 C   0  0  0  0  0  0  0  0  0  0  0  0
  -23.8204   -1.1878   28.7415 C   0  0  0  0  0  0  0  0  0  0  0  0
  -22.5663   -0.7056   28.3160 C   0  0  0  0  0  0  0  0  0  0  0  0
  2  7  1  0
  7  8  2  0
  7  9  1  0
  3 10  1  0
  4 11  1  0
 14 15  1  0
  1  2  2  0
  2  5  1  0
  5  6  2  0
  6  4  1  0
  4  3  2  0
  3  1  1  0
 11 12  2  0
 12 13  1  0
 13 14  2  0
 14 17  1  0
 17 16  2  0
 16 11  1  0
M  END

$$$$
