No_4917-gen_results/8p0m/2024-11-27-11-27-31/
     RDKit          3D

 34 37  0  0  0  0  0  0  0  0999 V2000
  -28.0162   -0.8135   28.8779 C   0  0  0  0  0  0  0  0  0  0  0  0
  -28.4690   -0.7850   29.8287 C   0  0  0  0  0  0  0  0  0  0  0  0
  -26.5455   -0.8762   28.8500 C   0  0  0  0  0  0  0  0  0  0  0  0
  -25.8041   -1.0324   30.0571 C   0  0  0  0  0  0  0  0  0  0  0  0
  -27.9437   -0.9869   31.2075 C   0  0  0  0  0  0  0  0  0  0  0  0
  -26.5825   -1.0386   31.2231 C   0  0  0  0  0  0  0  0  0  0  0  0
  -24.3810   -1.1082   30.0855 C   0  0  0  0  0  0  0  0  0  0  0  0
  -23.6421   -1.1177   29.0486 C   0  0  0  0  0  0  0  0  0  0  0  0
  -22.4003   -0.5056   29.0274 C   0  0  0  0  0  0  0  0  0  0  0  0
  -21.6769   -0.1194   27.8941 C   0  0  0  0  0  0  0  0  0  0  0  0
  -21.6133    1.2694   27.7806 C   0  0  0  0  0  0  0  0  0  0  0  0
  -30.0910   -0.6910   29.8946 C   0  0  0  0  0  0  0  0  0  0  0  0
  -30.6621    0.0758   30.7922 O   0  0  0  0  0  0  0  0  0  0  0  0
  -30.7186   -1.2897   29.0447 O   0  0  0  0  0  0  0  0  0  0  0  0
  -23.7077   -1.1486   31.4121 C   0  0  0  0  0  0  0  0  0  0  0  0
  -22.3703   -0.7963   31.4356 N   0  0  0  0  0  0  0  0  0  0  0  0
  -21.7302   -0.3512   30.4021 C   0  0  0  0  0  0  0  0  0  0  0  0
  -22.7545    2.1633   27.4648 C   0  0  0  0  0  0  0  0  0  0  0  0
  -23.3530    2.1898   26.1924 C   0  0  0  0  0  0  0  0  0  0  0  0
  -24.5672    2.8508   25.9693 C   0  0  0  0  0  0  0  0  0  0  0  0
  -25.1691    3.5367   27.1011 C   0  0  0  0  0  0  0  0  0  0  0  0
  -24.6540    3.4093   28.3686 C   0  0  0  0  0  0  0  0  0  0  0  0
  -23.5046    2.6640   28.6256 C   0  0  0  0  0  0  0  0  0  0  0  0
  -25.3132    3.9893   29.4028 O   0  0  0  0  0  0  0  0  0  0  0  0
  -26.5773    3.4955   29.7433 C   0  0  0  0  0  0  0  0  0  0  0  0
  -26.7715    3.1451   31.0631 C   0  0  0  0  0  0  0  0  0  0  0  0
  -27.4065    3.9803   31.8319 C   0  0  0  0  0  0  0  0  0  0  0  0
  -27.6186    5.1715   31.4917 C   0  0  0  0  0  0  0  0  0  0  0  0
  -28.4054    5.7147   31.1951 C   0  0  0  0  0  0  0  0  0  0  0  0
  -28.5904    7.1260   30.7759 C   0  0  0  0  0  0  0  0  0  0  0  0
  -27.4183    7.8881   30.8350 C   0  0  0  0  0  0  0  0  0  0  0  0
  -26.2212    7.2887   31.2255 C   0  0  0  0  0  0  0  0  0  0  0  0
  -26.2567    5.9715   31.5783 C   0  0  0  0  0  0  0  0  0  0  0  0
  -27.5277    3.5141   28.8928 O   0  0  0  0  0  0  0  0  0  0  0  0
  4  7  1  0
 10 11  1  0
  2 12  1  0
 12 13  1  0
 12 14  2  0
 11 18  1  0
 22 24  1  0
 24 25  1  0
 25 26  1  0
 26 27  2  3
 27 28  1  0
 25 34  2  0
 10  9  1  0
 18 19  2  0
 19 20  1  0
 20 21  2  0
 21 22  1  0
 22 23  2  0
 23 18  1  0
 28 29  2  0
 29 30  1  0
 30 31  2  0
 31 32  1  0
 32 33  2  0
 33 28  1  0
  7  8  2  0
  8  9  1  0
  9 17  2  0
 17 16  1  0
 16 15  2  0
 15  7  1  0
  1  2  2  0
  2  5  1  0
  5  6  2  0
  6  4  1  0
  4  3  2  0
  3  1  1  0
M  END

$$$$
