No_4124-gen_results/8p0m/2024-11-27-11-27-31/
     RDKit          3D

 25 27  0  0  0  0  0  0  0  0999 V2000
  -28.0162   -0.8135   28.8779 C   0  0  0  0  0  0  0  0  0  0  0  0
  -27.0636   -0.1190   28.6079 C   0  0  0  0  0  0  0  0  0  0  0  0
  -26.8756    1.1325   28.9134 C   0  0  0  0  0  0  0  0  0  0  0  0
  -27.9014    1.8066   29.6436 C   0  0  0  0  0  0  0  0  0  0  0  0
  -29.0458   -0.2316   29.7181 C   0  0  0  0  0  0  0  0  0  0  0  0
  -28.9402    1.0517   30.0597 C   0  0  0  0  0  0  0  0  0  0  0  0
  -30.3294   -1.2509   30.1909 Cl  0  0  0  0  0  0  0  0  0  0  0  0
  -25.6528    1.9343   28.4399 C   0  0  0  0  0  0  0  0  0  0  0  0
  -24.9134    1.6968   27.6747 C   0  0  0  0  0  0  0  0  0  0  0  0
  -23.6884    2.4502   27.3176 C   0  0  0  0  0  0  0  0  0  0  0  0
  -24.9152    2.7596   29.4633 C   0  0  0  0  0  0  0  0  0  0  0  0
  -25.6610    3.1303   30.6822 N   0  0  0  0  0  0  0  0  0  0  0  0
  -22.8752    2.0654   26.2449 C   0  0  0  0  0  0  0  0  0  0  0  0
  -25.0476    0.7347   26.5142 C   0  0  0  0  0  0  0  0  0  0  0  0
  -24.4570    0.6021   25.3531 C   0  0  0  0  0  0  0  0  0  0  0  0
  -23.2795    1.3659   25.1926 C   0  0  0  0  0  0  0  0  0  0  0  0
  -24.9044    3.6191   31.7406 C   0  0  0  0  0  0  0  0  0  0  0  0
  -25.6076    4.6465   32.5193 C   0  0  0  0  0  0  0  0  0  0  0  0
  -25.8104    5.8560   31.9272 C   0  0  0  0  0  0  0  0  0  0  0  0
  -25.4834    6.1750   30.8810 C   0  0  0  0  0  0  0  0  0  0  0  0
  -25.6840    7.5409   30.2686 C   0  0  0  0  0  0  0  0  0  0  0  0
  -25.2697    7.8308   28.9669 C   0  0  0  0  0  0  0  0  0  0  0  0
  -24.9235    6.7575   28.0951 C   0  0  0  0  0  0  0  0  0  0  0  0
  -25.0291    5.4369   28.5814 C   0  0  0  0  0  0  0  0  0  0  0  0
  -25.2646    5.2051   29.8427 C   0  0  0  0  0  0  0  0  0  0  0  0
  5  7  1  0
  3  8  1  0
  8 11  1  0
 11 12  1  0
 12 17  1  0
 17 18  1  0
 18 19  1  0
  8  9  1  0
 19 20  1  0
 20 21  2  0
 21 22  1  0
 22 23  2  0
 23 24  1  0
 24 25  2  0
 25 20  1  0
  1  2  2  0
  2  3  1  0
  3  4  2  0
  4  6  1  0
  6  5  2  0
  5  1  1  0
  9 10  2  0
 10 13  1  0
 13 16  2  0
 16 15  1  0
 15 14  2  0
 14  9  1  0
M  END

$$$$
