No_4256-gen_results/8p0m/2024-11-27-11-27-31/
     RDKit          3D

 35 38  0  0  0  0  0  0  0  0999 V2000
  -28.0162   -0.8135   28.8779 C   0  0  0  0  0  0  0  0  0  0  0  0
  -27.0636   -0.1189   28.6079 C   0  0  0  0  0  0  0  0  0  0  0  0
  -26.9716    0.7139   27.5060 C   0  0  0  0  0  0  0  0  0  0  0  0
  -25.8205    1.4909   27.1160 C   0  0  0  0  0  0  0  0  0  0  0  0
  -24.6562    1.4242   27.9180 C   0  0  0  0  0  0  0  0  0  0  0  0
  -24.7114    0.5419   29.0507 C   0  0  0  0  0  0  0  0  0  0  0  0
  -25.8042   -0.2058   29.3881 C   0  0  0  0  0  0  0  0  0  0  0  0
  -28.0309   -1.5903   30.1490 C   0  0  0  0  0  0  0  0  0  0  0  0
  -26.8104   -1.7964   30.8511 C   0  0  0  0  0  0  0  0  0  0  0  0
  -25.6958   -1.0684   30.5035 C   0  0  0  0  0  0  0  0  0  0  0  0
  -28.0906    0.8796   26.5377 C   0  0  0  0  0  0  0  0  0  0  0  0
  -27.7576    0.9788   25.3778 F   0  0  0  0  0  0  0  0  0  0  0  0
  -28.7560    1.9293   26.9881 F   0  0  0  0  0  0  0  0  0  0  0  0
  -28.9413   -0.1753   26.5959 F   0  0  0  0  0  0  0  0  0  0  0  0
  -23.4281    0.5331   29.8431 C   0  0  0  0  0  0  0  0  0  0  0  0
  -22.8279    1.5074   30.0936 O   0  0  0  0  0  0  0  0  0  0  0  0
  -22.9534   -0.7133   30.2092 N   0  0  0  0  0  0  0  0  0  0  0  0
  -29.1260   -2.3430   30.4249 O   0  0  0  0  0  0  0  0  0  0  0  0
  -29.0111   -3.6977   30.4674 C   0  0  0  0  0  0  0  0  0  0  0  0
  -28.3626   -4.3957   30.8873 C   0  0  0  0  0  0  0  0  0  0  0  0
  -30.3185   -4.2857   29.8403 C   0  0  0  0  0  0  0  0  0  0  0  0
  -31.0839   -3.6472   29.2573 O   0  0  0  0  0  0  0  0  0  0  0  0
  -30.2499   -5.7134   29.7611 N   0  0  0  0  0  0  0  0  0  0  0  0
  -28.3467   -5.7702   31.1403 N   0  0  0  0  0  0  0  0  0  0  0  0
  -31.3445   -6.2815   29.2676 C   0  0  0  0  0  0  0  0  0  0  0  0
  -29.3848   -6.3432   30.6011 C   0  0  0  0  0  0  0  0  0  0  0  0
  -31.6165   -6.1333   27.9352 C   0  0  0  0  0  0  0  0  0  0  0  0
  -32.1951   -7.0095   27.1142 C   0  0  0  0  0  0  0  0  0  0  0  0
  -32.6999   -8.1641   27.6957 C   0  0  0  0  0  0  0  0  0  0  0  0
  -32.4539   -8.3794   29.0817 C   0  0  0  0  0  0  0  0  0  0  0  0
  -31.7178   -7.5317   29.8316 C   0  0  0  0  0  0  0  0  0  0  0  0
  -33.4807   -9.0979   26.9035 C   0  0  0  0  0  0  0  0  0  0  0  0
  -33.0392  -10.0519   26.3503 C   0  0  0  0  0  0  0  0  0  0  0  0
  -31.6126  -10.3686   26.4975 C   0  0  0  0  0  0  0  0  0  0  0  0
  -30.9320  -10.1129   27.4178 C   0  0  0  0  0  0  0  0  0  0  0  0
  3 11  1  0
 11 12  1  0
 11 13  1  0
 11 14  1  0
  6 15  1  0
 15 16  2  0
 15 17  1  0
  8 18  1  0
 18 19  1  0
 19 21  1  0
 21 22  2  0
 21 23  1  0
 20 24  1  0
 23 25  1  0
 23 26  1  0
 29 32  1  0
 32 33  2  3
 33 34  1  0
 34 35  1  0
 19 20  1  0
 24 26  1  0
 25 27  2  0
 27 28  1  0
 28 29  2  0
 29 30  1  0
 30 31  2  0
 31 25  1  0
  2  3  1  0
  3  4  2  0
  4  5  1  0
  5  6  2  0
  6  7  1  0
  1  2  2  0
  2  7  1  0
  7 10  2  0
 10  9  1  0
  9  8  2  0
  8  1  1  0
M  END

$$$$
