No_4290-gen_results/8p0m/2024-11-27-11-27-31/
     RDKit          3D

 19 21  0  0  0  0  0  0  0  0999 V2000
  -28.0162   -0.8135   28.8779 C   0  0  0  0  0  0  0  0  0  0  0  0
  -27.0636   -0.1189   28.6079 C   0  0  0  0  0  0  0  0  0  0  0  0
  -26.8756    1.1325   28.9134 C   0  0  0  0  0  0  0  0  0  0  0  0
  -27.9014    1.8066   29.6436 C   0  0  0  0  0  0  0  0  0  0  0  0
  -28.9449    1.0388   30.0360 C   0  0  0  0  0  0  0  0  0  0  0  0
  -29.0273   -0.2890   29.7051 C   0  0  0  0  0  0  0  0  0  0  0  0
  -25.8229    1.8477   28.5391 F   0  0  0  0  0  0  0  0  0  0  0  0
  -30.1454   -1.1949   30.1072 C   0  0  0  0  0  0  0  0  0  0  0  0
  -30.6045   -1.1092   31.3617 C   0  0  0  0  0  0  0  0  0  0  0  0
  -30.6858   -2.0197   29.3306 O   0  0  0  0  0  0  0  0  0  0  0  0
  -30.3168   -0.4816   32.2878 N   0  0  0  0  0  0  0  0  0  0  0  0
  -31.3928   -2.0947   31.6898 O   0  0  0  0  0  0  0  0  0  0  0  0
  -30.7584   -0.4614   33.6968 C   0  0  0  0  0  0  0  0  0  0  0  0
  -30.0777    0.2399   34.4399 C   0  0  0  0  0  0  0  0  0  0  0  0
  -29.0025    1.1315   34.0912 C   0  0  0  0  0  0  0  0  0  0  0  0
  -28.5488    1.0375   32.7893 C   0  0  0  0  0  0  0  0  0  0  0  0
  -29.0977    0.2752   31.9910 C   0  0  0  0  0  0  0  0  0  0  0  0
  -28.8033    0.5832   30.7290 N   0  0  0  0  0  0  0  0  0  0  0  0
  -27.5465   -0.0750   31.0754 C   0  0  0  0  0  0  0  0  0  0  0  0
  3  7  1  0
  6  8  1  0
  8  9  1  0
  8 10  2  0
  9 11  1  0
  9 12  2  0
 11 13  1  0
 14 15  1  0
 11 17  1  0
 16 17  1  0
  5 18  1  0
 17 18  1  0
 18 19  1  0
 13 14  1  0
 15 16  1  0
  1  2  2  0
  2  3  1  0
  3  4  2  0
  4  5  1  0
  5  6  2  0
  6  1  1  0
M  END

$$$$
