No_4193-gen_results/8p0m/2024-11-27-11-27-31/
     RDKit          3D

 27 29  0  0  0  0  0  0  0  0999 V2000
  -28.0162   -0.8135   28.8779 C   0  0  0  0  0  0  0  0  0  0  0  0
  -27.0636   -0.1189   28.6079 C   0  0  0  0  0  0  0  0  0  0  0  0
  -25.7923   -0.4302   29.0761 C   0  0  0  0  0  0  0  0  0  0  0  0
  -24.5456    0.3494   28.8225 C   0  0  0  0  0  0  0  0  0  0  0  0
  -23.2409    0.0217   29.3323 C   0  0  0  0  0  0  0  0  0  0  0  0
  -27.8820   -1.8995   29.8633 C   0  0  0  0  0  0  0  0  0  0  0  0
  -26.6526   -2.3142   30.3138 C   0  0  0  0  0  0  0  0  0  0  0  0
  -25.5153   -1.5607   29.9787 C   0  0  0  0  0  0  0  0  0  0  0  0
  -22.1588    0.7866   28.9507 C   0  0  0  0  0  0  0  0  0  0  0  0
  -22.1309    1.7439   27.9818 C   0  0  0  0  0  0  0  0  0  0  0  0
  -24.5165    1.3706   27.7930 C   0  0  0  0  0  0  0  0  0  0  0  0
  -23.3378    2.0353   27.4273 C   0  0  0  0  0  0  0  0  0  0  0  0
  -29.0463   -2.7293   30.2922 C   0  0  0  0  0  0  0  0  0  0  0  0
  -30.1968   -2.2490   30.2609 N   0  0  0  0  0  0  0  0  0  0  0  0
  -28.8487   -3.8841   30.7598 O   0  0  0  0  0  0  0  0  0  0  0  0
  -31.3990   -3.0017   30.6355 C   0  0  0  0  0  0  0  0  0  0  0  0
  -23.4666    2.9706   26.4840 F   0  0  0  0  0  0  0  0  0  0  0  0
  -32.4586   -2.6499   30.0303 C   0  0  0  0  0  0  0  0  0  0  0  0
  -33.3173   -3.0860   29.6429 C   0  0  0  0  0  0  0  0  0  0  0  0
  -34.5197   -2.5570   28.8373 C   0  0  0  0  0  0  0  0  0  0  0  0
  -34.4324   -1.2052   28.5705 C   0  0  0  0  0  0  0  0  0  0  0  0
  -33.3645   -0.4794   28.9345 C   0  0  0  0  0  0  0  0  0  0  0  0
  -32.3565   -1.0574   29.6148 C   0  0  0  0  0  0  0  0  0  0  0  0
  -33.2898    0.9754   28.6177 C   0  0  0  0  0  0  0  0  0  0  0  0
  -32.6451    1.8182   28.7158 Cl  0  0  0  0  0  0  0  0  0  0  0  0
  -34.6582    1.2668   27.7313 C   0  0  0  0  0  0  0  0  0  0  0  0
  -34.7347    2.5831   27.3869 N   0  0  0  0  0  0  0  0  0  0  0  0
  3  4  1  0
  6 13  1  0
 13 14  1  0
 13 15  2  0
 14 16  1  0
 12 17  1  0
 16 18  1  0
 22 24  1  0
 24 25  1  0
 24 26  1  0
 26 27  1  0
 18 19  2  0
 19 20  1  0
 20 21  2  0
 21 22  1  0
 22 23  2  0
 23 18  1  0
  1  2  2  0
  2  3  1  0
  3  8  2  0
  8  7  1  0
  7  6  2  0
  6  1  1  0
  4  5  2  0
  5  9  1  0
  9 10  2  0
 10 12  1  0
 12 11  2  0
 11  4  1  0
M  END

$$$$
