No_4710-gen_results/8p0m/2024-11-27-11-27-31/
     RDKit          3D

 35 38  0  0  0  0  0  0  0  0999 V2000
  -28.0162   -0.8135   28.8779 C   0  0  0  0  0  0  0  0  0  0  0  0
  -28.4690   -0.7850   29.8287 C   0  0  0  0  0  0  0  0  0  0  0  0
  -26.5455   -0.8762   28.8500 C   0  0  0  0  0  0  0  0  0  0  0  0
  -25.8041   -1.0324   30.0571 C   0  0  0  0  0  0  0  0  0  0  0  0
  -27.9437   -0.9869   31.2075 C   0  0  0  0  0  0  0  0  0  0  0  0
  -26.5825   -1.0386   31.2231 C   0  0  0  0  0  0  0  0  0  0  0  0
  -30.0606   -0.7371   29.9024 C   0  0  0  0  0  0  0  0  0  0  0  0
  -30.5524   -0.2769   29.0111 O   0  0  0  0  0  0  0  0  0  0  0  0
  -30.7429   -1.2889   30.9939 N   0  0  0  0  0  0  0  0  0  0  0  0
  -32.1712   -1.2600   30.9749 C   0  0  0  0  0  0  0  0  0  0  0  0
  -24.3688   -1.0881   30.0880 C   0  0  0  0  0  0  0  0  0  0  0  0
  -23.7191    0.1798   30.0181 C   0  0  0  0  0  0  0  0  0  0  0  0
  -22.4705    0.3023   29.3244 C   0  0  0  0  0  0  0  0  0  0  0  0
  -21.8893    1.5049   29.0333 C   0  0  0  0  0  0  0  0  0  0  0  0
  -21.0349    1.4817   27.8989 C   0  0  0  0  0  0  0  0  0  0  0  0
  -24.2566    1.3032   30.7182 C   0  0  0  0  0  0  0  0  0  0  0  0
  -25.0853    2.1703   30.4356 C   0  0  0  0  0  0  0  0  0  0  0  0
  -25.4070    2.5898   29.1188 C   0  0  0  0  0  0  0  0  0  0  0  0
  -26.3483    3.6157   28.8798 C   0  0  0  0  0  0  0  0  0  0  0  0
  -27.0056    4.1905   29.9783 C   0  0  0  0  0  0  0  0  0  0  0  0
  -26.7412    3.8140   31.2821 C   0  0  0  0  0  0  0  0  0  0  0  0
  -25.8030    2.9010   31.5323 C   0  0  0  0  0  0  0  0  0  0  0  0
  -25.8260   -0.7647   27.6634 N   0  0  0  0  0  0  0  0  0  0  0  0
  -23.6241    1.3756   31.9987 O   0  0  0  0  0  0  0  0  0  0  0  0
  -21.7440   -0.8264   28.9260 C   0  0  0  0  0  0  0  0  0  0  0  0
  -20.6031   -0.7483   28.2466 N   0  0  0  0  0  0  0  0  0  0  0  0
  -20.2446    0.4536   27.7444 C   0  0  0  0  0  0  0  0  0  0  0  0
  -32.9202   -0.4559   30.6527 C   0  0  0  0  0  0  0  0  0  0  0  0
  -34.3366   -0.5048   30.7076 C   0  0  0  0  0  0  0  0  0  0  0  0
  -34.8324   -1.6908   31.2801 C   0  0  0  0  0  0  0  0  0  0  0  0
  -33.9872   -2.6917   31.6732 C   0  0  0  0  0  0  0  0  0  0  0  0
  -32.6079   -2.5539   31.6265 C   0  0  0  0  0  0  0  0  0  0  0  0
  -36.5168   -1.9010   31.4407 Cl  0  0  0  0  0  0  0  0  0  0  0  0
  -26.6951    3.9983   27.5191 C   0  0  0  0  0  0  0  0  0  0  0  0
  -25.7238    3.9560   26.6901 C   0  0  0  0  0  0  0  0  0  0  0  0
  2  7  1  0
  7  8  2  0
  7  9  1  0
  9 10  1  0
  4 11  1  0
 11 12  1  0
 12 16  1  0
 16 17  1  0
  3 23  1  0
 16 24  2  0
 30 33  1  0
 19 34  1  0
 34 35  2  0
 12 13  1  0
 17 18  2  0
 18 19  1  0
 19 20  2  0
 20 21  1  0
 21 22  2  0
 22 17  1  0
 10 28  2  0
 28 29  1  0
 29 30  2  0
 30 31  1  0
 31 32  2  0
 32 10  1  0
 13 14  2  0
 14 15  1  0
 15 27  2  0
 27 26  1  0
 26 25  2  0
 25 13  1  0
  1  2  2  0
  2  5  1  0
  5  6  2  0
  6  4  1  0
  4  3  2  0
  3  1  1  0
M  END

$$$$
