No_4500-gen_results/8p0m/2024-11-27-11-27-31/
     RDKit          3D

 19 19  0  0  0  0  0  0  0  0999 V2000
  -28.0162   -0.8135   28.8779 C   0  0  0  0  0  0  0  0  0  0  0  0
  -28.4690   -0.7850   29.8287 C   0  0  0  0  0  0  0  0  0  0  0  0
  -28.1960    0.3478   28.0550 C   0  0  0  0  0  0  0  0  0  0  0  0
  -27.4421    0.5100   26.7946 C   0  0  0  0  0  0  0  0  0  0  0  0
  -26.1689   -0.0794   26.6787 C   0  0  0  0  0  0  0  0  0  0  0  0
  -25.7312   -0.9607   27.6875 C   0  0  0  0  0  0  0  0  0  0  0  0
  -26.5043   -1.2222   28.7582 C   0  0  0  0  0  0  0  0  0  0  0  0
  -29.6729   -0.4971   29.9081 F   0  0  0  0  0  0  0  0  0  0  0  0
  -28.1882   -1.7131   30.8431 F   0  0  0  0  0  0  0  0  0  0  0  0
  -25.1343    0.2396   25.3745 Cl  0  0  0  0  0  0  0  0  0  0  0  0
  -27.7784    1.3932   25.8075 O   0  0  0  0  0  0  0  0  0  0  0  0
  -29.0397    1.7954   25.8344 C   0  0  0  0  0  0  0  0  0  0  0  0
  -25.9986   -2.1844   29.5932 O   0  0  0  0  0  0  0  0  0  0  0  0
  -24.8154   -2.7794   29.2733 C   0  0  0  0  0  0  0  0  0  0  0  0
  -23.6557   -2.1218   29.5507 C   0  0  0  0  0  0  0  0  0  0  0  0
  -24.8371   -4.2548   29.3529 C   0  0  0  0  0  0  0  0  0  0  0  0
  -26.0838   -4.8680   29.2988 C   0  0  0  0  0  0  0  0  0  0  0  0
  -26.7858   -4.4266   29.8868 O   0  0  0  0  0  0  0  0  0  0  0  0
  -23.5768   -1.1108   30.2516 O   0  0  0  0  0  0  0  0  0  0  0  0
  2  8  1  0
  2  9  1  0
  5 10  1  0
  4 11  1  0
 11 12  1  0
  7 13  1  0
 13 14  1  0
 14 15  2  0
 14 16  1  0
 16 17  1  0
 17 18  2  0
 15 19  2  0
  2  1  1  0
  1  3  2  0
  3  4  1  0
  4  5  2  0
  5  6  1  0
  6  7  2  0
  7  1  1  0
M  END

$$$$
