No_4021-gen_results/8p0m/2024-11-27-11-27-31/
     RDKit          3D

 16 17  0  0  0  0  0  0  0  0999 V2000
  -28.0162   -0.8135   28.8779 C   0  0  0  0  0  0  0  0  0  0  0  0
  -27.0636   -0.1189   28.6079 C   0  0  0  0  0  0  0  0  0  0  0  0
  -25.7647   -0.3897   29.0360 C   0  0  0  0  0  0  0  0  0  0  0  0
  -25.5296   -1.5302   29.9014 C   0  0  0  0  0  0  0  0  0  0  0  0
  -26.6888   -2.2893   30.1810 C   0  0  0  0  0  0  0  0  0  0  0  0
  -27.8727   -1.9508   29.7373 C   0  0  0  0  0  0  0  0  0  0  0  0
  -24.6993    0.3604   28.7753 F   0  0  0  0  0  0  0  0  0  0  0  0
  -29.0333   -2.8145   30.1506 C   0  0  0  0  0  0  0  0  0  0  0  0
  -29.3603   -2.9001   31.3935 N   0  0  0  0  0  0  0  0  0  0  0  0
  -30.5418   -2.6704   31.8029 C   0  0  0  0  0  0  0  0  0  0  0  0
  -31.3850   -2.0130   31.0392 C   0  0  0  0  0  0  0  0  0  0  0  0
  -32.3953   -2.0509   30.8574 C   0  0  0  0  0  0  0  0  0  0  0  0
  -33.1900   -1.7167   30.2946 C   0  0  0  0  0  0  0  0  0  0  0  0
  -32.8607   -0.6146   29.3035 C   0  0  0  0  0  0  0  0  0  0  0  0
  -31.5495   -0.3003   29.2669 C   0  0  0  0  0  0  0  0  0  0  0  0
  -30.7217   -1.0054   30.1647 C   0  0  0  0  0  0  0  0  0  0  0  0
  3  7  1  0
  6  8  1  0
  8  9  1  0
  9 10  2  3
 10 11  1  0
 11 12  2  0
 12 13  1  0
 13 14  2  0
 14 15  1  0
 15 16  2  0
 16 11  1  0
  1  2  2  0
  2  3  1  0
  3  4  2  0
  4  5  1  0
  5  6  2  0
  6  1  1  0
M  END

$$$$
