No_4377-gen_results/8p0m/2024-11-27-11-27-31/
     RDKit          3D

 35 40  0  0  0  0  0  0  0  0999 V2000
  -28.0162   -0.8135   28.8779 C   0  0  0  0  0  0  0  0  0  0  0  0
  -27.0636   -0.1189   28.6079 C   0  0  0  0  0  0  0  0  0  0  0  0
  -26.9716    0.7139   27.5060 C   0  0  0  0  0  0  0  0  0  0  0  0
  -28.1053    0.7744   26.6421 C   0  0  0  0  0  0  0  0  0  0  0  0
  -29.2008    0.1044   27.0527 C   0  0  0  0  0  0  0  0  0  0  0  0
  -28.0219   -1.5899   30.0879 C   0  0  0  0  0  0  0  0  0  0  0  0
  -29.1640   -0.6394   28.1484 C   0  0  0  0  0  0  0  0  0  0  0  0
  -28.8376   -1.8977   30.7662 N   0  0  0  0  0  0  0  0  0  0  0  0
  -26.7856   -1.9477   30.5474 O   0  0  0  0  0  0  0  0  0  0  0  0
  -30.2508   -1.5519   30.5150 C   0  0  0  0  0  0  0  0  0  0  0  0
  -30.3815    0.2120   26.1633 C   0  0  0  0  0  0  0  0  0  0  0  0
  -31.0236    0.9957   26.1858 O   0  0  0  0  0  0  0  0  0  0  0  0
  -30.4271   -0.8426   25.3351 O   0  0  0  0  0  0  0  0  0  0  0  0
  -31.1771   -2.2302   30.9854 C   0  0  0  0  0  0  0  0  0  0  0  0
  -32.5500   -1.9156   30.6708 C   0  0  0  0  0  0  0  0  0  0  0  0
  -32.8173   -0.7957   29.8327 C   0  0  0  0  0  0  0  0  0  0  0  0
  -31.7747   -0.0381   29.3947 C   0  0  0  0  0  0  0  0  0  0  0  0
  -30.4665   -0.3664   29.7227 C   0  0  0  0  0  0  0  0  0  0  0  0
  -30.2950    0.7535   30.7497 N   0  0  0  0  0  0  0  0  0  0  0  0
  -30.3381    0.8587   31.9880 C   0  0  0  0  0  0  0  0  0  0  0  0
  -29.8985    2.0370   32.5555 C   0  0  0  0  0  0  0  0  0  0  0  0
  -29.8791    2.0897   30.1311 C   0  0  0  0  0  0  0  0  0  0  0  0
  -29.5040    3.1502   30.7766 C   0  0  0  0  0  0  0  0  0  0  0  0
  -29.5093    3.1702   32.1011 C   0  0  0  0  0  0  0  0  0  0  0  0
  -30.2931   -1.0475   28.5657 O   0  0  0  0  0  0  0  0  0  0  0  0
  -29.0460    4.3582   29.9732 C   0  0  0  0  0  0  0  0  0  0  0  0
  -27.8541    4.6765   30.0524 C   0  0  0  0  0  0  0  0  0  0  0  0
  -26.8509    3.8793   30.5586 C   0  0  0  0  0  0  0  0  0  0  0  0
  -26.7854    2.9863   31.0177 C   0  0  0  0  0  0  0  0  0  0  0  0
  -25.3518    2.4447   31.4231 C   0  0  0  0  0  0  0  0  0  0  0  0
  -25.1073    1.1915   32.0233 C   0  0  0  0  0  0  0  0  0  0  0  0
  -26.1301    0.6943   32.7609 C   0  0  0  0  0  0  0  0  0  0  0  0
  -27.5008    1.1868   32.5379 C   0  0  0  0  0  0  0  0  0  0  0  0
  -27.6637    2.3063   31.8400 C   0  0  0  0  0  0  0  0  0  0  0  0
  -28.5205    2.7548   32.3762 N   0  0  0  0  0  0  0  0  0  0  0  0
  1  6  1  0
  6  8  1  0
  6  9  2  0
  8 10  1  0
  5 11  1  0
 11 12  2  0
 11 13  1  0
 14 15  1  0
 16 17  1  0
 10 18  1  0
 17 18  1  0
 18 19  1  0
 19 20  1  0
 19 22  1  0
 21 24  1  0
 23 24  1  0
  7 25  1  0
 18 25  1  0
 23 26  1  0
 26 27  2  3
 27 28  1  0
 24 35  1  0
 34 35  1  0
 28 29  1  0
 20 21  1  0
 23 22  1  0
 10 14  1  0
 15 16  1  0
 29 30  2  0
 30 31  1  0
 31 32  2  0
 32 33  1  0
 33 34  2  0
 34 29  1  0
  1  2  2  0
  2  3  1  0
  3  4  2  0
  4  5  1  0
  5  7  2  0
  7  1  1  0
M  END

$$$$
