No_4897-gen_results/8p0m/2024-11-27-11-27-31/
     RDKit          3D

 17 18  0  0  0  0  0  0  0  0999 V2000
  -28.0162   -0.8135   28.8779 C   0  0  0  0  0  0  0  0  0  0  0  0
  -28.4690   -0.7850   29.8287 C   0  0  0  0  0  0  0  0  0  0  0  0
  -26.5455   -0.8762   28.8500 C   0  0  0  0  0  0  0  0  0  0  0  0
  -25.8041   -1.0324   30.0571 C   0  0  0  0  0  0  0  0  0  0  0  0
  -26.5373   -1.0386   31.2171 C   0  0  0  0  0  0  0  0  0  0  0  0
  -27.8929   -0.9601   31.1743 C   0  0  0  0  0  0  0  0  0  0  0  0
  -25.8001   -0.8259   27.7108 O   0  0  0  0  0  0  0  0  0  0  0  0
  -25.7838    0.3630   27.0424 C   0  0  0  0  0  0  0  0  0  0  0  0
  -24.5590    0.8791   26.9823 C   0  0  0  0  0  0  0  0  0  0  0  0
  -24.2281    1.8214   27.5279 C   0  0  0  0  0  0  0  0  0  0  0  0
  -24.9648    2.5652   28.5640 C   0  0  0  0  0  0  0  0  0  0  0  0
  -26.2286    2.7626   28.1675 C   0  0  0  0  0  0  0  0  0  0  0  0
  -26.9123    1.2228   26.9202 C   0  0  0  0  0  0  0  0  0  0  0  0
  -27.1667    2.2828   27.7124 C   0  0  0  0  0  0  0  0  0  0  0  0
  -27.8118    0.6850   25.8903 C   0  0  0  0  0  0  0  0  0  0  0  0
  -29.1779    0.9694   25.8723 C   0  0  0  0  0  0  0  0  0  0  0  0
  -29.9701    0.5279   24.9050 C   0  0  0  0  0  0  0  0  0  0  0  0
  3  7  1  0
  7  8  1  0
  8  9  1  0
  9 10  2  0
 10 11  1  0
 11 12  2  0
  8 13  1  0
 12 14  1  0
 13 14  1  0
 13 15  1  0
 15 16  2  3
 16 17  1  0
  1  2  2  0
  2  6  1  0
  6  5  2  0
  5  4  1  0
  4  3  2  0
  3  1  1  0
M  END

$$$$
