No_4362-gen_results/8p0m/2024-11-27-11-27-31/
     RDKit          3D

 13 14  0  0  0  0  0  0  0  0999 V2000
  -28.0162   -0.8135   28.8779 C   0  0  0  0  0  0  0  0  0  0  0  0
  -28.4690   -0.7850   29.8287 C   0  0  0  0  0  0  0  0  0  0  0  0
  -26.5042   -0.7777   28.8766 C   0  0  0  0  0  0  0  0  0  0  0  0
  -25.8103   -0.8531   30.1028 C   0  0  0  0  0  0  0  0  0  0  0  0
  -27.9906   -0.8916   31.2257 C   0  0  0  0  0  0  0  0  0  0  0  0
  -26.6042   -0.8676   31.2652 C   0  0  0  0  0  0  0  0  0  0  0  0
  -29.9385   -0.8194   29.8358 O   0  0  0  0  0  0  0  0  0  0  0  0
  -30.6393    0.2340   30.2522 C   0  0  0  0  0  0  0  0  0  0  0  0
  -31.7597    0.2238   30.0390 C   0  0  0  0  0  0  0  0  0  0  0  0
  -32.6044    1.4051   30.4106 C   0  0  0  0  0  0  0  0  0  0  0  0
  -31.9249    2.4725   31.0455 C   0  0  0  0  0  0  0  0  0  0  0  0
  -30.5797    2.3814   31.2575 C   0  0  0  0  0  0  0  0  0  0  0  0
  -29.8580    1.3049   30.8845 C   0  0  0  0  0  0  0  0  0  0  0  0
  2  7  1  0
  7  8  1  0
  8  9  2  0
  9 10  1  0
 10 11  2  0
 11 12  1  0
 12 13  2  0
 13  8  1  0
  1  2  2  0
  2  5  1  0
  5  6  2  0
  6  4  1  0
  4  3  2  0
  3  1  1  0
M  END

$$$$
