No_4084-gen_results/8p0m/2024-11-27-11-27-31/
     RDKit          3D

 25 26  0  0  0  0  0  0  0  0999 V2000
  -28.0162   -0.8135   28.8779 C   0  0  0  0  0  0  0  0  0  0  0  0
  -28.4690   -0.7850   29.8287 C   0  0  0  0  0  0  0  0  0  0  0  0
  -27.0871    0.2903   28.6377 C   0  0  0  0  0  0  0  0  0  0  0  0
  -26.0239    0.3644   29.2526 C   0  0  0  0  0  0  0  0  0  0  0  0
  -27.5370   -0.6187   31.0883 C   0  0  0  0  0  0  0  0  0  0  0  0
  -26.3844    0.1834   30.8012 C   0  0  0  0  0  0  0  0  0  0  0  0
  -29.5100   -1.6195   30.2653 O   0  0  0  0  0  0  0  0  0  0  0  0
  -30.7241   -1.2384   29.8510 C   0  0  0  0  0  0  0  0  0  0  0  0
  -31.0126   -0.2082   29.4039 C   0  0  0  0  0  0  0  0  0  0  0  0
  -30.0965    0.9072   29.4980 C   0  0  0  0  0  0  0  0  0  0  0  0
  -30.7049    2.0923   29.6888 C   0  0  0  0  0  0  0  0  0  0  0  0
  -29.8820    3.2685   30.0023 C   0  0  0  0  0  0  0  0  0  0  0  0
  -28.4760    3.1425   29.8284 C   0  0  0  0  0  0  0  0  0  0  0  0
  -27.6329    4.2550   30.1273 C   0  0  0  0  0  0  0  0  0  0  0  0
  -28.2131    5.4053   30.5756 C   0  0  0  0  0  0  0  0  0  0  0  0
  -29.5474    5.5317   30.7223 C   0  0  0  0  0  0  0  0  0  0  0  0
  -30.3600    4.4632   30.4539 C   0  0  0  0  0  0  0  0  0  0  0  0
  -26.6691    0.6579   27.1254 C   0  0  0  0  0  0  0  0  0  0  0  0
  -25.9021    1.3549   27.0136 F   0  0  0  0  0  0  0  0  0  0  0  0
  -27.1916   -0.0402   26.4938 F   0  0  0  0  0  0  0  0  0  0  0  0
  -31.4536   -2.4673   29.6182 C   0  0  0  0  0  0  0  0  0  0  0  0
  -32.3694   -2.6129   28.8306 O   0  0  0  0  0  0  0  0  0  0  0  0
  -30.9359   -3.7339   30.1271 N   0  0  0  0  0  0  0  0  0  0  0  0
  -31.5251   -5.0114   29.8641 C   0  0  0  0  0  0  0  0  0  0  0  0
  -31.6946    2.6228   28.5928 C   0  0  0  0  0  0  0  0  0  0  0  0
  2  7  1  0
  7  8  1  0
  8  9  2  3
  9 10  1  0
 10 11  2  3
 11 12  1  0
  3 18  1  0
 18 19  1  0
 18 20  1  0
  8 21  1  0
 21 22  2  0
 21 23  1  0
 23 24  1  0
 11 25  1  0
 12 13  2  0
 13 14  1  0
 14 15  2  0
 15 16  1  0
 16 17  2  0
 17 12  1  0
  1  2  2  0
  2  5  1  0
  5  6  2  0
  6  4  1  0
  4  3  2  0
  3  1  1  0
M  END

$$$$
