No_4187-gen_results/8p0m/2024-11-27-11-27-31/
     RDKit          3D

 35 39  0  0  0  0  0  0  0  0999 V2000
  -28.0162   -0.8135   28.8779 C   0  0  0  0  0  0  0  0  0  0  0  0
  -27.0636   -0.1190   28.6079 C   0  0  0  0  0  0  0  0  0  0  0  0
  -25.7923   -0.4302   29.0761 C   0  0  0  0  0  0  0  0  0  0  0  0
  -25.5756   -1.5654   29.9363 C   0  0  0  0  0  0  0  0  0  0  0  0
  -26.7354   -2.3004   30.2173 C   0  0  0  0  0  0  0  0  0  0  0  0
  -27.9184   -1.9537   29.7629 C   0  0  0  0  0  0  0  0  0  0  0  0
  -27.1057    1.1023   27.7593 C   0  0  0  0  0  0  0  0  0  0  0  0
  -27.8576    1.5309   27.2156 C   0  0  0  0  0  0  0  0  0  0  0  0
  -27.8299    2.6705   26.2936 C   0  0  0  0  0  0  0  0  0  0  0  0
  -26.5899    3.3104   26.0934 C   0  0  0  0  0  0  0  0  0  0  0  0
  -25.4689    2.7905   26.7306 C   0  0  0  0  0  0  0  0  0  0  0  0
  -25.6127    1.7390   27.5551 C   0  0  0  0  0  0  0  0  0  0  0  0
  -24.4415    1.2249   28.1662 C   0  0  0  0  0  0  0  0  0  0  0  0
  -24.5501    0.2127   28.8572 C   0  0  0  0  0  0  0  0  0  0  0  0
  -23.1745    1.9799   27.8950 C   0  0  0  0  0  0  0  0  0  0  0  0
  -22.8085    2.4926   26.8863 O   0  0  0  0  0  0  0  0  0  0  0  0
  -22.3124    2.0705   28.9950 O   0  0  0  0  0  0  0  0  0  0  0  0
  -29.1411   -2.7426   30.1055 C   0  0  0  0  0  0  0  0  0  0  0  0
  -30.1648   -2.3425   29.9924 O   0  0  0  0  0  0  0  0  0  0  0  0
  -28.8594   -4.0039   30.6375 N   0  0  0  0  0  0  0  0  0  0  0  0
  -29.7786   -4.9270   30.7103 C   0  0  0  0  0  0  0  0  0  0  0  0
  -30.5758   -5.2095   29.6318 C   0  0  0  0  0  0  0  0  0  0  0  0
  -31.9352   -5.0985   29.8630 C   0  0  0  0  0  0  0  0  0  0  0  0
  -32.7243   -4.7131   28.8501 C   0  0  0  0  0  0  0  0  0  0  0  0
  -32.2098   -4.8328   27.4744 C   0  0  0  0  0  0  0  0  0  0  0  0
  -30.8619   -5.1669   27.3000 C   0  0  0  0  0  0  0  0  0  0  0  0
  -30.0287   -5.2510   28.4027 C   0  0  0  0  0  0  0  0  0  0  0  0
  -33.0983   -4.7790   26.2866 C   0  0  0  0  0  0  0  0  0  0  0  0
  -33.1350   -3.4076   25.7310 C   0  0  0  0  0  0  0  0  0  0  0  0
  -31.9380   -2.7143   25.6321 C   0  0  0  0  0  0  0  0  0  0  0  0
  -34.3772   -2.9019   25.2167 C   0  0  0  0  0  0  0  0  0  0  0  0
  -31.8997   -1.4454   24.9092 C   0  0  0  0  0  0  0  0  0  0  0  0
  -34.3246   -1.6218   24.5998 C   0  0  0  0  0  0  0  0  0  0  0  0
  -33.1738   -0.9075   24.4904 C   0  0  0  0  0  0  0  0  0  0  0  0
  -33.6773   -5.8372   25.7271 C   0  0  0  0  0  0  0  0  0  0  0  0
  2  7  1  0
 12 13  1  0
  3 14  1  0
 13 14  1  0
 13 15  1  0
 15 16  2  0
 15 17  1  0
  6 18  1  0
 18 19  2  0
 18 20  1  0
 20 21  1  0
 21 22  1  0
 25 28  1  0
 28 29  1  0
 28 35  1  0
 29 30  2  0
 30 32  1  0
 32 34  2  0
 34 33  1  0
 33 31  2  0
 31 29  1  0
  1  2  2  0
  2  3  1  0
  3  4  2  0
  4  5  1  0
  5  6  2  0
  6  1  1  0
 22 23  2  0
 23 24  1  0
 24 25  2  0
 25 26  1  0
 26 27  2  0
 27 22  1  0
  7  8  2  0
  8  9  1  0
  9 10  2  0
 10 11  1  0
 11 12  2  0
 12  7  1  0
M  END

$$$$
