No_4819-gen_results/8p0m/2024-11-27-11-27-31/
     RDKit          3D

 17 18  0  0  0  0  0  0  0  0999 V2000
  -28.1229   -1.3353   28.4874 O   0  0  0  0  0  0  0  0  0  0  0  0
  -27.4806   -0.4044   28.7094 C   0  0  0  0  0  0  0  0  0  0  0  0
  -27.2412    0.3910   29.5098 N   0  0  0  0  0  0  0  0  0  0  0  0
  -26.4066   -0.1069   27.4496 C   0  0  0  0  0  0  0  0  0  0  0  0
  -25.4358    0.8473   27.6341 C   0  0  0  0  0  0  0  0  0  0  0  0
  -25.4244    1.6272   28.7628 C   0  0  0  0  0  0  0  0  0  0  0  0
  -24.3571    2.6471   28.9675 C   0  0  0  0  0  0  0  0  0  0  0  0
  -26.3233    1.3740   29.8174 C   0  0  0  0  0  0  0  0  0  0  0  0
  -23.4893    2.8643   28.0641 O   0  0  0  0  0  0  0  0  0  0  0  0
  -24.5991    3.6049   29.8092 O   0  0  0  0  0  0  0  0  0  0  0  0
  -28.1864    0.1018   30.7666 C   0  0  0  0  0  0  0  0  0  0  0  0
  -27.7651   -0.4662   31.8454 C   0  0  0  0  0  0  0  0  0  0  0  0
  -28.6414   -1.0770   32.6364 C   0  0  0  0  0  0  0  0  0  0  0  0
  -30.0231   -0.9518   32.4615 C   0  0  0  0  0  0  0  0  0  0  0  0
  -30.4250   -0.3074   31.2761 C   0  0  0  0  0  0  0  0  0  0  0  0
  -29.5132    0.1869   30.3373 C   0  0  0  0  0  0  0  0  0  0  0  0
  -26.5136    2.3010   30.7420 O   0  0  0  0  0  0  0  0  0  0  0  0
  1  2  2  0
  2  3  1  0
  2  4  1  0
  5  6  1  0
  6  7  1  0
  3  8  1  0
  6  8  1  0
  7  9  1  0
  7 10  2  0
  3 11  1  0
  8 17  2  0
  4  5  1  0
 11 12  2  0
 12 13  1  0
 13 14  2  0
 14 15  1  0
 15 16  2  0
 16 11  1  0
M  END

$$$$
