No_400-gen_results/8p0m/2024-11-27-11-27-31/
     RDKit          3D

  5  4  0  0  0  0  0  0  0  0999 V2000
  -28.1493   -0.8198   28.9079 Cl  0  0  0  0  0  0  0  0  0  0  0  0
  -26.9116   -0.0797   28.9452 C   0  0  0  0  0  0  0  0  0  0  0  0
  -26.2828   -0.1883   27.9884 F   0  0  0  0  0  0  0  0  0  0  0  0
  -27.1175    1.2653   29.2101 F   0  0  0  0  0  0  0  0  0  0  0  0
  -26.1432   -0.4710   30.0324 F   0  0  0  0  0  0  0  0  0  0  0  0
  1  2  1  0
  2  3  1  0
  2  4  1  0
  2  5  1  0
M  END

$$$$
