No_4311-gen_results/8p0m/2024-11-27-11-27-31/
     RDKit          3D

 29 32  0  0  0  0  0  0  0  0999 V2000
  -28.0162   -0.8135   28.8779 C   0  0  0  0  0  0  0  0  0  0  0  0
  -27.0636   -0.1190   28.6079 C   0  0  0  0  0  0  0  0  0  0  0  0
  -27.0010    0.6913   27.4910 C   0  0  0  0  0  0  0  0  0  0  0  0
  -25.8548    1.4825   27.0830 C   0  0  0  0  0  0  0  0  0  0  0  0
  -24.6901    1.4526   27.8807 C   0  0  0  0  0  0  0  0  0  0  0  0
  -24.7379    0.6010   29.0416 C   0  0  0  0  0  0  0  0  0  0  0  0
  -25.8234   -0.1688   29.3887 C   0  0  0  0  0  0  0  0  0  0  0  0
  -29.2075   -0.1514   29.0660 N   0  0  0  0  0  0  0  0  0  0  0  0
  -29.6327    0.2314   30.2532 C   0  0  0  0  0  0  0  0  0  0  0  0
  -30.8588    0.9466   30.2717 C   0  0  0  0  0  0  0  0  0  0  0  0
  -30.2930   -0.7233   28.1232 C   0  0  0  0  0  0  0  0  0  0  0  0
  -30.0189   -1.0306   27.0737 O   0  0  0  0  0  0  0  0  0  0  0  0
  -31.5920   -0.6522   28.5011 N   0  0  0  0  0  0  0  0  0  0  0  0
  -31.9392    0.0934   29.7130 N   0  0  0  0  0  0  0  0  0  0  0  0
  -23.5104    2.1697   27.5343 C   0  0  0  0  0  0  0  0  0  0  0  0
  -22.7610    2.4650   28.4571 F   0  0  0  0  0  0  0  0  0  0  0  0
  -23.5968    2.9286   26.7699 F   0  0  0  0  0  0  0  0  0  0  0  0
  -33.2998    0.1255   30.0918 C   0  0  0  0  0  0  0  0  0  0  0  0
  -22.6049    1.1084   26.9713 F   0  0  0  0  0  0  0  0  0  0  0  0
  -32.5494   -1.2362   27.7668 C   0  0  0  0  0  0  0  0  0  0  0  0
  -33.4962    0.7041   31.3291 C   0  0  0  0  0  0  0  0  0  0  0  0
  -34.3702    0.7781   32.0209 C   0  0  0  0  0  0  0  0  0  0  0  0
  -35.5853    0.1046   31.5657 C   0  0  0  0  0  0  0  0  0  0  0  0
  -35.4879   -0.5391   30.3136 C   0  0  0  0  0  0  0  0  0  0  0  0
  -34.2652   -0.6207   29.6026 C   0  0  0  0  0  0  0  0  0  0  0  0
  -33.9833   -1.3335   28.3548 C   0  0  0  0  0  0  0  0  0  0  0  0
  -36.6149   -1.3013   29.7786 C   0  0  0  0  0  0  0  0  0  0  0  0
  -36.8280   -2.2661   29.5952 C   0  0  0  0  0  0  0  0  0  0  0  0
  -38.0460   -2.8607   29.0209 C   0  0  0  0  0  0  0  0  0  0  0  0
  1  2  1  0
  1  8  1  0
  8  9  1  0
  8 11  1  0
 11 12  2  0
 11 13  1  0
 10 14  1  0
 13 14  1  0
  5 15  1  0
 15 16  1  0
 15 17  1  0
 14 18  1  0
 15 19  1  0
 13 20  1  0
 20 26  1  0
 25 26  1  0
 24 27  1  0
 27 28  2  3
 28 29  1  0
  9 10  1  0
  2  3  2  0
  3  4  1  0
  4  5  2  0
  5  6  1  0
  6  7  2  0
  7  2  1  0
 18 21  2  0
 21 22  1  0
 22 23  2  0
 23 24  1  0
 24 25  2  0
 25 18  1  0
M  END

$$$$
