No_4434-gen_results/8p0m/2024-11-27-11-27-31/
     RDKit          3D

 23 25  0  0  0  0  0  0  0  0999 V2000
  -28.0162   -0.8135   28.8779 C   0  0  0  0  0  0  0  0  0  0  0  0
  -28.4690   -0.7850   29.8287 C   0  0  0  0  0  0  0  0  0  0  0  0
  -26.5455   -0.8762   28.8500 C   0  0  0  0  0  0  0  0  0  0  0  0
  -25.8041   -1.0324   30.0571 C   0  0  0  0  0  0  0  0  0  0  0  0
  -24.3697   -1.0998   30.0718 C   0  0  0  0  0  0  0  0  0  0  0  0
  -27.9902   -1.0051   31.2092 C   0  0  0  0  0  0  0  0  0  0  0  0
  -26.5616   -1.1368   31.2600 C   0  0  0  0  0  0  0  0  0  0  0  0
  -23.7274    0.1713   30.0259 C   0  0  0  0  0  0  0  0  0  0  0  0
  -22.4546    0.3063   29.4122 C   0  0  0  0  0  0  0  0  0  0  0  0
  -21.7830   -0.9262   29.0907 C   0  0  0  0  0  0  0  0  0  0  0  0
  -23.7636   -1.9487   28.9580 C   0  0  0  0  0  0  0  0  0  0  0  0
  -22.3948   -1.9498   28.8656 N   0  0  0  0  0  0  0  0  0  0  0  0
  -23.8524   -1.7915   31.4777 C   0  0  0  0  0  0  0  0  0  0  0  0
  -24.3229    1.3756   30.6761 C   0  0  0  0  0  0  0  0  0  0  0  0
  -24.3433    1.5901   31.7922 O   0  0  0  0  0  0  0  0  0  0  0  0
  -24.9365    2.2469   29.7572 N   0  0  0  0  0  0  0  0  0  0  0  0
  -25.6723    3.4831   30.2447 C   0  0  0  0  0  0  0  0  0  0  0  0
  -26.0560    4.2445   29.2010 C   0  0  0  0  0  0  0  0  0  0  0  0
  -25.7762    3.9242   27.8885 C   0  0  0  0  0  0  0  0  0  0  0  0
  -24.7034    2.3106   28.3967 C   0  0  0  0  0  0  0  0  0  0  0  0
  -25.0957    3.0785   27.4742 N   0  0  0  0  0  0  0  0  0  0  0  0
  -30.0295   -0.7265   30.0236 C   0  0  0  0  0  0  0  0  0  0  0  0
  -30.7222   -1.5309   30.3104 N   0  0  0  0  0  0  0  0  0  0  0  0
  4  5  1  0
  5  8  1  0
  9 10  1  0
  5 11  1  0
 10 12  1  0
  5 13  1  0
  8 14  1  0
 14 15  2  0
 14 16  1  0
 16 17  1  0
 18 19  1  0
 16 20  1  0
 20 21  1  0
  2 22  1  0
 22 23  3  0
 17 18  1  0
 19 21  1  0
  8  9  1  0
 12 11  1  0
  1  2  2  0
  2  6  1  0
  6  7  2  0
  7  4  1  0
  4  3  2  0
  3  1  1  0
M  END

$$$$
