No_4401-gen_results/8p0m/2024-11-27-11-27-31/
     RDKit          3D

 12 12  0  0  0  0  0  0  0  0999 V2000
  -28.0544   -1.0498   28.7246 N   0  0  0  0  0  0  0  0  0  0  0  0
  -26.9659   -0.4722   28.7709 C   0  0  0  0  0  0  0  0  0  0  0  0
  -25.8527   -0.9249   29.3786 C   0  0  0  0  0  0  0  0  0  0  0  0
  -24.5535   -0.2590   29.4587 C   0  0  0  0  0  0  0  0  0  0  0  0
  -24.4466    0.9713   28.7742 C   0  0  0  0  0  0  0  0  0  0  0  0
  -25.1551    1.2511   28.1061 C   0  0  0  0  0  0  0  0  0  0  0  0
  -26.4995    0.6662   28.0341 C   0  0  0  0  0  0  0  0  0  0  0  0
  -29.0960   -0.1912   28.9240 C   0  0  0  0  0  0  0  0  0  0  0  0
  -29.2941    0.4259   29.6904 O   0  0  0  0  0  0  0  0  0  0  0  0
  -29.9728   -0.2119   27.7351 O   0  0  0  0  0  0  0  0  0  0  0  0
  -23.2458    1.7313   29.0040 C   0  0  0  0  0  0  0  0  0  0  0  0
  -22.6631    2.3752   28.0209 O   0  0  0  0  0  0  0  0  0  0  0  0
  1  2  2  3
  2  3  1  0
  3  4  1  0
  4  5  1  0
  5  6  1  0
  2  7  1  0
  6  7  1  0
  1  8  1  0
  8  9  2  0
  8 10  1  0
  5 11  1  0
 11 12  2  0
M  END

$$$$
