No_4999-gen_results/8p0m/2024-11-27-11-27-31/
     RDKit          3D

 24 27  0  0  0  0  0  0  0  0999 V2000
  -28.1229   -1.3353   28.4874 O   0  0  0  0  0  0  0  0  0  0  0  0
  -27.0637   -0.8242   28.8687 C   0  0  0  0  0  0  0  0  0  0  0  0
  -26.4017   -0.0623   28.6224 C   0  0  0  0  0  0  0  0  0  0  0  0
  -26.3805   -1.7991   29.9619 N   0  0  0  0  0  0  0  0  0  0  0  0
  -26.7771    1.0571   27.7896 C   0  0  0  0  0  0  0  0  0  0  0  0
  -25.9129    1.9788   27.2177 C   0  0  0  0  0  0  0  0  0  0  0  0
  -24.8281    1.9431   27.3699 C   0  0  0  0  0  0  0  0  0  0  0  0
  -24.1088    1.0105   28.2265 C   0  0  0  0  0  0  0  0  0  0  0  0
  -24.9190    0.0527   28.7619 C   0  0  0  0  0  0  0  0  0  0  0  0
  -27.1449   -2.9921   30.4186 C   0  0  0  0  0  0  0  0  0  0  0  0
  -22.6418    1.0259   28.4591 C   0  0  0  0  0  0  0  0  0  0  0  0
  -22.1605    0.2818   29.4195 N   0  0  0  0  0  0  0  0  0  0  0  0
  -21.8743    1.9468   27.9696 O   0  0  0  0  0  0  0  0  0  0  0  0
  -25.1876   -1.6121   30.6679 C   0  0  0  0  0  0  0  0  0  0  0  0
  -24.2667   -0.6807   29.8939 C   0  0  0  0  0  0  0  0  0  0  0  0
  -22.9385   -0.6784   30.2405 C   0  0  0  0  0  0  0  0  0  0  0  0
  -28.2819   -3.1935   29.8352 C   0  0  0  0  0  0  0  0  0  0  0  0
  -29.0578   -4.3685   30.3916 C   0  0  0  0  0  0  0  0  0  0  0  0
  -30.3038   -4.6339   29.8336 C   0  0  0  0  0  0  0  0  0  0  0  0
  -30.4922   -5.8810   29.3463 C   0  0  0  0  0  0  0  0  0  0  0  0
  -31.6091   -6.1087   28.5272 C   0  0  0  0  0  0  0  0  0  0  0  0
  -32.5535   -5.1062   28.3071 C   0  0  0  0  0  0  0  0  0  0  0  0
  -32.3406   -3.8777   28.8335 C   0  0  0  0  0  0  0  0  0  0  0  0
  -31.1596   -3.5841   29.5605 C   0  0  0  0  0  0  0  0  0  0  0  0
  1  2  2  0
  2  3  1  0
  2  4  1  0
  4 10  1  0
  8 11  1  0
 11 12  1  0
 11 13  2  0
  4 14  1  0
  9 15  1  0
 12 16  1  0
 15 16  1  0
 10 17  1  0
 17 18  1  0
 18 19  1  0
 15 14  1  0
  3  5  2  0
  5  6  1  0
  6  7  2  0
  7  8  1  0
  8  9  2  0
  9  3  1  0
 19 20  2  0
 20 21  1  0
 21 22  2  0
 22 23  1  0
 23 24  2  0
 24 19  1  0
M  END

$$$$
