No_429-gen_results/8p0m/2024-11-27-11-27-31/
     RDKit          3D

 30 33  0  0  0  0  0  0  0  0999 V2000
  -28.0162   -0.8135   28.8779 C   0  0  0  0  0  0  0  0  0  0  0  0
  -28.4690   -0.7850   29.8287 C   0  0  0  0  0  0  0  0  0  0  0  0
  -28.1960    0.3478   28.0550 C   0  0  0  0  0  0  0  0  0  0  0  0
  -29.0191    1.3501   28.3782 C   0  0  0  0  0  0  0  0  0  0  0  0
  -29.4107    0.1803   30.3782 C   0  0  0  0  0  0  0  0  0  0  0  0
  -29.2236    2.4924   27.5425 C   0  0  0  0  0  0  0  0  0  0  0  0
  -30.0370    0.0602   31.6431 C   0  0  0  0  0  0  0  0  0  0  0  0
  -29.5825    1.2461   29.6090 C   0  0  0  0  0  0  0  0  0  0  0  0
  -30.3921   -0.9164   32.2068 C   0  0  0  0  0  0  0  0  0  0  0  0
  -31.0430   -1.0226   33.5424 C   0  0  0  0  0  0  0  0  0  0  0  0
  -30.9718    1.0861   32.0858 C   0  0  0  0  0  0  0  0  0  0  0  0
  -31.6033    1.1808   33.2645 C   0  0  0  0  0  0  0  0  0  0  0  0
  -31.6887    0.0329   33.9856 C   0  0  0  0  0  0  0  0  0  0  0  0
  -28.9843    3.6449   27.9569 C   0  0  0  0  0  0  0  0  0  0  0  0
  -29.7011    2.2613   26.2205 C   0  0  0  0  0  0  0  0  0  0  0  0
  -29.2506    4.8518   27.2884 C   0  0  0  0  0  0  0  0  0  0  0  0
  -29.9238    3.3804   25.3952 C   0  0  0  0  0  0  0  0  0  0  0  0
  -29.6657    4.7096   25.9134 C   0  0  0  0  0  0  0  0  0  0  0  0
  -27.5666    0.3567   26.7985 O   0  0  0  0  0  0  0  0  0  0  0  0
  -26.2810    0.2639   26.7995 C   0  0  0  0  0  0  0  0  0  0  0  0
  -25.4557    1.4296   26.7440 C   0  0  0  0  0  0  0  0  0  0  0  0
  -24.1823    1.3087   27.1541 C   0  0  0  0  0  0  0  0  0  0  0  0
  -23.6420    0.1514   27.7801 C   0  0  0  0  0  0  0  0  0  0  0  0
  -24.5334   -0.9163   27.9855 C   0  0  0  0  0  0  0  0  0  0  0  0
  -25.7278   -0.8216   27.4947 C   0  0  0  0  0  0  0  0  0  0  0  0
  -22.2587    0.1669   28.2747 C   0  0  0  0  0  0  0  0  0  0  0  0
  -21.9381   -0.5786   29.4109 C   0  0  0  0  0  0  0  0  0  0  0  0
  -21.2823    1.0395   27.7479 C   0  0  0  0  0  0  0  0  0  0  0  0
  -20.0609    1.0273   28.4015 N   0  0  0  0  0  0  0  0  0  0  0  0
  -21.5084    1.8350   26.8749 O   0  0  0  0  0  0  0  0  0  0  0  0
  4  6  1  0
  5  7  1  0
  3 19  1  0
 19 20  1  0
 23 26  1  0
 26 27  2  0
 26 28  1  0
 28 29  1  0
 28 30  2  0
  6 14  2  0
 14 16  1  0
 16 18  2  0
 18 17  1  0
 17 15  2  0
 15  6  1  0
  7  9  2  0
  9 10  1  0
 10 13  2  0
 13 12  1  0
 12 11  2  0
 11  7  1  0
  1  2  2  0
  2  5  1  0
  5  8  2  0
  8  4  1  0
  4  3  2  0
  3  1  1  0
 20 21  2  0
 21 22  1  0
 22 23  2  0
 23 24  1  0
 24 25  2  0
 25 20  1  0
M  END

$$$$
