No_4426-gen_results/8p0m/2024-11-27-11-27-31/
     RDKit          3D

 21 23  0  0  0  0  0  0  0  0999 V2000
  -28.0162   -0.8135   28.8779 C   0  0  0  0  0  0  0  0  0  0  0  0
  -27.0636   -0.1189   28.6079 C   0  0  0  0  0  0  0  0  0  0  0  0
  -26.9716    0.7139   27.5060 C   0  0  0  0  0  0  0  0  0  0  0  0
  -28.1053    0.7744   26.6421 C   0  0  0  0  0  0  0  0  0  0  0  0
  -29.2041    0.1179   27.0477 C   0  0  0  0  0  0  0  0  0  0  0  0
  -29.2127   -0.6088   28.1281 C   0  0  0  0  0  0  0  0  0  0  0  0
  -30.3709    0.2326   26.1381 C   0  0  0  0  0  0  0  0  0  0  0  0
  -31.2520   -0.4036   26.3042 O   0  0  0  0  0  0  0  0  0  0  0  0
  -30.3125    1.0175   25.0722 O   0  0  0  0  0  0  0  0  0  0  0  0
  -25.6591    1.4028   27.1328 C   0  0  0  0  0  0  0  0  0  0  0  0
  -25.1457    2.3398   28.1296 C   0  0  0  0  0  0  0  0  0  0  0  0
  -23.8822    2.8747   27.7935 C   0  0  0  0  0  0  0  0  0  0  0  0
  -23.1647    2.4461   26.6428 C   0  0  0  0  0  0  0  0  0  0  0  0
  -24.8040    1.0765   26.0924 C   0  0  0  0  0  0  0  0  0  0  0  0
  -23.6877    1.5524   25.8105 C   0  0  0  0  0  0  0  0  0  0  0  0
  -25.8133    2.8321   29.2707 C   0  0  0  0  0  0  0  0  0  0  0  0
  -25.3911    2.4497   30.4921 C   0  0  0  0  0  0  0  0  0  0  0  0
  -26.9275    3.7056   29.1006 C   0  0  0  0  0  0  0  0  0  0  0  0
  -27.0712    4.6378   29.8013 C   0  0  0  0  0  0  0  0  0  0  0  0
  -25.7376    3.3473   31.5903 C   0  0  0  0  0  0  0  0  0  0  0  0
  -26.6418    4.4506   31.3279 C   0  0  0  0  0  0  0  0  0  0  0  0
  5  7  1  0
  7  8  1  0
  7  9  2  0
  3 10  1  0
 11 16  1  0
  1  2  2  0
  2  3  1  0
  3  4  2  0
  4  5  1  0
  5  6  2  0
  6  1  1  0
 16 17  2  0
 17 20  1  0
 20 21  2  0
 21 19  1  0
 19 18  2  0
 18 16  1  0
 10 11  1  0
 11 12  2  0
 12 13  1  0
 13 15  2  0
 15 14  1  0
 14 10  2  0
M  END

$$$$
