No_4275-gen_results/8p0m/2024-11-27-11-27-31/
     RDKit          3D

 17 19  0  0  0  0  0  0  0  0999 V2000
  -28.0162   -0.8135   28.8779 C   0  0  0  0  0  0  0  0  0  0  0  0
  -28.4690   -0.7850   29.8287 C   0  0  0  0  0  0  0  0  0  0  0  0
  -26.5455   -0.8762   28.8500 C   0  0  0  0  0  0  0  0  0  0  0  0
  -25.6825   -0.7773   27.6829 C   0  0  0  0  0  0  0  0  0  0  0  0
  -27.9181   -1.0034   31.1877 C   0  0  0  0  0  0  0  0  0  0  0  0
  -26.5308   -1.0794   31.2463 C   0  0  0  0  0  0  0  0  0  0  0  0
  -25.7798   -1.0462   30.0905 C   0  0  0  0  0  0  0  0  0  0  0  0
  -25.2322    0.5793   27.3292 C   0  0  0  0  0  0  0  0  0  0  0  0
  -25.5211    1.0301   26.0784 C   0  0  0  0  0  0  0  0  0  0  0  0
  -23.8278    0.9436   27.5164 C   0  0  0  0  0  0  0  0  0  0  0  0
  -23.1382    0.7056   28.7526 C   0  0  0  0  0  0  0  0  0  0  0  0
  -23.1862    1.8141   26.6311 C   0  0  0  0  0  0  0  0  0  0  0  0
  -21.9220    2.2855   27.0219 N   0  0  0  0  0  0  0  0  0  0  0  0
  -21.7837    0.9518   28.9825 C   0  0  0  0  0  0  0  0  0  0  0  0
  -21.1954    1.8028   28.0191 C   0  0  0  0  0  0  0  0  0  0  0  0
  -23.9076    2.1277   25.6494 N   0  0  0  0  0  0  0  0  0  0  0  0
  -24.9946    1.9085   25.3091 C   0  0  0  0  0  0  0  0  0  0  0  0
  3  4  1  0
  4  8  1  0
 10 11  2  0
 11 14  1  0
 14 15  2  0
 15 13  1  0
 13 12  2  0
  1  2  2  0
  2  5  1  0
  5  6  2  0
  6  7  1  0
  7  3  2  0
  3  1  1  0
  8  9  2  0
  9 17  1  0
 17 16  2  0
 16 12  1  0
 12 10  1  0
 10  8  1  0
M  END

$$$$
