No_4696-gen_results/8p0m/2024-11-27-11-27-31/
     RDKit          3D

 14 15  0  0  0  0  0  0  0  0999 V2000
  -28.0162   -0.8135   28.8779 C   0  0  0  0  0  0  0  0  0  0  0  0
  -28.4690   -0.7850   29.8287 C   0  0  0  0  0  0  0  0  0  0  0  0
  -26.5455   -0.8762   28.8500 C   0  0  0  0  0  0  0  0  0  0  0  0
  -25.8041   -1.0324   30.0571 C   0  0  0  0  0  0  0  0  0  0  0  0
  -27.9437   -0.9869   31.2075 C   0  0  0  0  0  0  0  0  0  0  0  0
  -26.5825   -1.0386   31.2231 C   0  0  0  0  0  0  0  0  0  0  0  0
  -29.9267   -0.7257   29.8772 O   0  0  0  0  0  0  0  0  0  0  0  0
  -30.5256    0.4218   30.2407 C   0  0  0  0  0  0  0  0  0  0  0  0
  -31.6092    0.5419   29.9850 C   0  0  0  0  0  0  0  0  0  0  0  0
  -32.3264    1.3956   29.9995 C   0  0  0  0  0  0  0  0  0  0  0  0
  -33.7549    1.5750   29.6323 C   0  0  0  0  0  0  0  0  0  0  0  0
  -34.3004    0.3773   29.1603 C   0  0  0  0  0  0  0  0  0  0  0  0
  -33.5800   -0.7341   29.0246 C   0  0  0  0  0  0  0  0  0  0  0  0
  -32.3122   -0.7271   29.3831 C   0  0  0  0  0  0  0  0  0  0  0  0
  2  7  1  0
  7  8  1  0
  8  9  1  0
  9 10  2  0
 10 11  1  0
 11 12  2  0
 12 13  1  0
 13 14  2  0
 14  9  1  0
  1  2  2  0
  2  5  1  0
  5  6  2  0
  6  4  1  0
  4  3  2  0
  3  1  1  0
M  END

$$$$
