No_4496-gen_results/8p0m/2024-11-27-11-27-31/
     RDKit          3D

 14 15  0  0  0  0  0  0  0  0999 V2000
  -28.0162   -0.8135   28.8779 C   0  0  0  0  0  0  0  0  0  0  0  0
  -28.4690   -0.7850   29.8287 C   0  0  0  0  0  0  0  0  0  0  0  0
  -27.0871    0.2903   28.6377 C   0  0  0  0  0  0  0  0  0  0  0  0
  -26.2516    0.4114   27.4223 C   0  0  0  0  0  0  0  0  0  0  0  0
  -29.4309   -1.9307   30.2714 C   0  0  0  0  0  0  0  0  0  0  0  0
  -25.1465    1.2405   27.3564 C   0  0  0  0  0  0  0  0  0  0  0  0
  -24.5331    1.4619   28.1198 C   0  0  0  0  0  0  0  0  0  0  0  0
  -24.9797    1.3818   29.5287 C   0  0  0  0  0  0  0  0  0  0  0  0
  -26.1487    0.6288   29.6803 C   0  0  0  0  0  0  0  0  0  0  0  0
  -29.7220   -2.7124   29.5627 C   0  0  0  0  0  0  0  0  0  0  0  0
  -29.9838   -3.7112   29.6100 C   0  0  0  0  0  0  0  0  0  0  0  0
  -29.9046   -4.1788   31.0087 C   0  0  0  0  0  0  0  0  0  0  0  0
  -29.7214   -3.4473   32.0425 C   0  0  0  0  0  0  0  0  0  0  0  0
  -29.2558   -2.1943   31.6876 C   0  0  0  0  0  0  0  0  0  0  0  0
  1  2  1  0
  1  3  1  0
  2  5  1  0
  5 10  2  0
 10 11  1  0
 11 12  2  0
 12 13  1  0
 13 14  2  0
 14  5  1  0
  3  4  2  0
  4  6  1  0
  6  7  2  0
  7  8  1  0
  8  9  2  0
  9  3  1  0
M  END

$$$$
