No_4195-gen_results/8p0m/2024-11-27-11-27-31/
     RDKit          3D

 12 12  0  0  0  0  0  0  0  0999 V2000
  -28.0162   -0.8135   28.8779 C   0  0  0  0  0  0  0  0  0  0  0  0
  -28.4690   -0.7850   29.8287 C   0  0  0  0  0  0  0  0  0  0  0  0
  -26.5042   -0.7777   28.8766 C   0  0  0  0  0  0  0  0  0  0  0  0
  -25.8305   -1.6807   29.6849 C   0  0  0  0  0  0  0  0  0  0  0  0
  -28.1490   -1.8854   30.9031 C   0  0  0  0  0  0  0  0  0  0  0  0
  -26.6460   -1.9561   31.0330 C   0  0  0  0  0  0  0  0  0  0  0  0
  -28.6417   -3.2474   30.5410 C   0  0  0  0  0  0  0  0  0  0  0  0
  -29.0990   -3.4906   29.6009 O   0  0  0  0  0  0  0  0  0  0  0  0
  -28.4517   -4.1346   31.5535 O   0  0  0  0  0  0  0  0  0  0  0  0
  -28.5654   -1.5440   32.3699 C   0  0  0  0  0  0  0  0  0  0  0  0
  -24.6117   -2.2957   29.4103 C   0  0  0  0  0  0  0  0  0  0  0  0
  -23.4766   -1.4797   29.3091 C   0  0  0  0  0  0  0  0  0  0  0  0
  1  2  1  0
  1  3  1  0
  3  4  1  0
  2  5  1  0
  4  6  1  0
  5  6  1  0
  5  7  1  0
  7  8  2  0
  7  9  1  0
  5 10  1  0
  4 11  1  0
 11 12  2  0
M  END

$$$$
