No_4491-gen_results/8p0m/2024-11-27-11-27-31/
     RDKit          3D

 28 30  0  0  0  0  0  0  0  0999 V2000
  -28.0162   -0.8135   28.8779 C   0  0  0  0  0  0  0  0  0  0  0  0
  -28.4690   -0.7850   29.8287 C   0  0  0  0  0  0  0  0  0  0  0  0
  -28.1816    0.4277   28.1134 C   0  0  0  0  0  0  0  0  0  0  0  0
  -28.9841    1.4155   28.5154 C   0  0  0  0  0  0  0  0  0  0  0  0
  -29.3802    0.1384   30.4612 C   0  0  0  0  0  0  0  0  0  0  0  0
  -29.9932   -0.0234   31.7370 C   0  0  0  0  0  0  0  0  0  0  0  0
  -29.5370    1.2619   29.7119 C   0  0  0  0  0  0  0  0  0  0  0  0
  -27.3066    0.3141   26.8144 C   0  0  0  0  0  0  0  0  0  0  0  0
  -26.4937    1.4275   26.6685 N   0  0  0  0  0  0  0  0  0  0  0  0
  -25.1627    1.2025   26.5066 C   0  0  0  0  0  0  0  0  0  0  0  0
  -24.2974    2.4165   26.5116 C   0  0  0  0  0  0  0  0  0  0  0  0
  -22.9423    2.3365   26.7428 C   0  0  0  0  0  0  0  0  0  0  0  0
  -22.4079    1.3425   27.6099 C   0  0  0  0  0  0  0  0  0  0  0  0
  -23.3082    0.3109   28.0010 C   0  0  0  0  0  0  0  0  0  0  0  0
  -24.7025    0.5336   27.9688 C   0  0  0  0  0  0  0  0  0  0  0  0
  -22.8073   -0.6136   29.0259 C   0  0  0  0  0  0  0  0  0  0  0  0
  -27.0116    2.2890   25.5216 C   0  0  0  0  0  0  0  0  0  0  0  0
  -23.1166   -0.4988   30.3984 C   0  0  0  0  0  0  0  0  0  0  0  0
  -23.6726    0.6100   30.8813 C   0  0  0  0  0  0  0  0  0  0  0  0
  -24.2751    0.7011   32.1601 C   0  0  0  0  0  0  0  0  0  0  0  0
  -24.2631   -0.4712   32.9093 C   0  0  0  0  0  0  0  0  0  0  0  0
  -24.9851   -0.4236   34.1284 C   0  0  0  0  0  0  0  0  0  0  0  0
  -25.8782    0.6032   34.4503 C   0  0  0  0  0  0  0  0  0  0  0  0
  -25.9466    1.7479   33.5321 C   0  0  0  0  0  0  0  0  0  0  0  0
  -25.2331    1.7936   32.3783 C   0  0  0  0  0  0  0  0  0  0  0  0
  -30.9563   -0.6172   31.9544 N   0  0  0  0  0  0  0  0  0  0  0  0
  -31.5292   -0.7996   33.1557 C   0  0  0  0  0  0  0  0  0  0  0  0
  -29.3151    0.5203   32.7480 O   0  0  0  0  0  0  0  0  0  0  0  0
  5  6  1  0
  3  8  1  0
  8  9  1  0
  9 10  1  0
 14 16  1  0
  9 17  1  0
 16 18  1  0
 18 19  2  3
 19 20  1  0
  6 26  1  0
 26 27  1  0
  6 28  2  0
 10 11  2  0
 11 12  1  0
 12 13  2  0
 13 14  1  0
 14 15  2  0
 15 10  1  0
 20 21  2  0
 21 22  1  0
 22 23  2  0
 23 24  1  0
 24 25  2  0
 25 20  1  0
  1  2  2  0
  2  5  1  0
  5  7  2  0
  7  4  1  0
  4  3  2  0
  3  1  1  0
M  END

$$$$
