No_4086-gen_results/8p0m/2024-11-27-11-27-31/
     RDKit          3D

 16 18  0  0  0  0  0  0  0  0999 V2000
  -28.0162   -0.8135   28.8779 C   0  0  0  0  0  0  0  0  0  0  0  0
  -28.4690   -0.7850   29.8287 C   0  0  0  0  0  0  0  0  0  0  0  0
  -27.0871    0.2903   28.6377 C   0  0  0  0  0  0  0  0  0  0  0  0
  -26.2516    0.4114   27.4223 C   0  0  0  0  0  0  0  0  0  0  0  0
  -28.3913    0.1041   30.9805 C   0  0  0  0  0  0  0  0  0  0  0  0
  -27.5332    1.1666   30.7866 C   0  0  0  0  0  0  0  0  0  0  0  0
  -26.8281    1.2557   29.6454 C   0  0  0  0  0  0  0  0  0  0  0  0
  -25.6444    1.6653   27.2216 C   0  0  0  0  0  0  0  0  0  0  0  0
  -24.6322    1.7370   26.2648 C   0  0  0  0  0  0  0  0  0  0  0  0
  -23.8427    2.9889   26.2422 C   0  0  0  0  0  0  0  0  0  0  0  0
  -24.2581    4.0862   27.0217 C   0  0  0  0  0  0  0  0  0  0  0  0
  -25.3586    3.9452   27.8295 C   0  0  0  0  0  0  0  0  0  0  0  0
  -25.9857    2.7341   28.0164 C   0  0  0  0  0  0  0  0  0  0  0  0
  -26.6790    2.5245   29.2790 C   0  0  0  0  0  0  0  0  0  0  0  0
  -26.7527    3.5748   30.0738 O   0  0  0  0  0  0  0  0  0  0  0  0
  -26.1688   -0.5160   26.6253 O   0  0  0  0  0  0  0  0  0  0  0  0
  3  4  1  0
  4  8  1  0
  7 14  1  0
 13 14  1  0
 14 15  2  0
  4 16  2  0
  8  9  2  0
  9 10  1  0
 10 11  2  0
 11 12  1  0
 12 13  2  0
 13  8  1  0
  1  2  2  0
  2  5  1  0
  5  6  2  0
  6  7  1  0
  7  3  2  0
  3  1  1  0
M  END

$$$$
