No_4623-gen_results/8p0m/2024-11-27-11-27-31/
     RDKit          3D

 26 29  0  0  0  0  0  0  0  0999 V2000
  -28.0162   -0.8135   28.8779 C   0  0  0  0  0  0  0  0  0  0  0  0
  -28.4690   -0.7850   29.8287 C   0  0  0  0  0  0  0  0  0  0  0  0
  -26.5042   -0.7777   28.8766 C   0  0  0  0  0  0  0  0  0  0  0  0
  -25.8103   -0.8531   30.1028 C   0  0  0  0  0  0  0  0  0  0  0  0
  -30.0136   -0.8410   29.8508 C   0  0  0  0  0  0  0  0  0  0  0  0
  -26.3863   -0.7517   31.0402 C   0  0  0  0  0  0  0  0  0  0  0  0
  -27.8763   -0.8226   31.1595 C   0  0  0  0  0  0  0  0  0  0  0  0
  -30.5037   -0.3890   28.9099 O   0  0  0  0  0  0  0  0  0  0  0  0
  -30.7049   -1.4564   30.8954 N   0  0  0  0  0  0  0  0  0  0  0  0
  -32.1368   -1.5401   30.8318 C   0  0  0  0  0  0  0  0  0  0  0  0
  -32.6222   -2.4276   31.4997 C   0  0  0  0  0  0  0  0  0  0  0  0
  -31.9118   -3.1955   32.5460 C   0  0  0  0  0  0  0  0  0  0  0  0
  -30.4976   -3.0920   32.5527 C   0  0  0  0  0  0  0  0  0  0  0  0
  -29.9055   -2.3319   31.6944 C   0  0  0  0  0  0  0  0  0  0  0  0
  -28.4754   -2.0770   31.8836 C   0  0  0  0  0  0  0  0  0  0  0  0
  -28.3003    0.4776   31.9504 C   0  0  0  0  0  0  0  0  0  0  0  0
  -28.3676    1.6971   31.5061 C   0  0  0  0  0  0  0  0  0  0  0  0
  -28.8632    2.7132   32.2647 C   0  0  0  0  0  0  0  0  0  0  0  0
  -28.4649    0.3691   33.4539 C   0  0  0  0  0  0  0  0  0  0  0  0
  -28.9034    1.3645   34.2484 C   0  0  0  0  0  0  0  0  0  0  0  0
  -29.0719    2.6145   33.6516 C   0  0  0  0  0  0  0  0  0  0  0  0
  -29.2638    0.5551   32.3097 O   0  0  0  0  0  0  0  0  0  0  0  0
  -30.7741    0.7966   32.3172 P   0  0  0  0  0  0  0  0  0  0  0  0
  -31.4052    1.2102   31.0592 O   0  0  0  0  0  0  0  0  0  0  0  0
  -31.5075   -0.4215   32.9327 O   0  0  0  0  0  0  0  0  0  0  0  0
  -31.0579    1.9691   33.3119 O   0  0  0  0  0  0  0  0  0  0  0  0
  1  2  1  0
  3  4  1  0
  2  5  1  0
  2  7  1  0
  6  7  1  0
  5  8  2  0
  5  9  1  0
  9 10  1  0
 11 12  1  0
  9 14  1  0
 13 14  1  0
  7 15  1  0
 14 15  1  0
  7 16  1  0
 16 17  1  0
 16 19  1  0
 19 20  1  0
 18 21  1  0
 20 21  1  0
 16 22  1  0
 22 23  1  0
 23 24  2  0
 23 25  1  0
 23 26  1  0
 10 11  1  0
 12 13  1  0
  1  3  1  0
  4  6  1  0
 17 18  1  0
M  END

$$$$
