No_437-gen_results/8p0m/2024-11-27-11-27-31/
     RDKit          3D

 29 31  0  0  0  0  0  0  0  0999 V2000
  -28.0162   -0.8135   28.8779 C   0  0  0  0  0  0  0  0  0  0  0  0
  -28.4690   -0.7850   29.8287 C   0  0  0  0  0  0  0  0  0  0  0  0
  -27.0871    0.2903   28.6377 C   0  0  0  0  0  0  0  0  0  0  0  0
  -26.9102    0.8486   27.4199 C   0  0  0  0  0  0  0  0  0  0  0  0
  -27.8863   -0.5049   31.0945 C   0  0  0  0  0  0  0  0  0  0  0  0
  -26.9294    0.5930   31.0741 C   0  0  0  0  0  0  0  0  0  0  0  0
  -26.5225    0.9550   29.8008 C   0  0  0  0  0  0  0  0  0  0  0  0
  -26.0918    1.8857   27.1882 C   0  0  0  0  0  0  0  0  0  0  0  0
  -25.4021    2.4974   28.3407 C   0  0  0  0  0  0  0  0  0  0  0  0
  -25.6781    2.1144   29.5745 C   0  0  0  0  0  0  0  0  0  0  0  0
  -27.3936    0.2134   26.1706 C   0  0  0  0  0  0  0  0  0  0  0  0
  -28.1903    0.7716   25.4501 C   0  0  0  0  0  0  0  0  0  0  0  0
  -28.4898    1.9800   25.6030 C   0  0  0  0  0  0  0  0  0  0  0  0
  -27.6722    3.1585   25.9595 C   0  0  0  0  0  0  0  0  0  0  0  0
  -26.4180    3.0434   26.2740 C   0  0  0  0  0  0  0  0  0  0  0  0
  -28.8669   -0.0321   24.4635 C   0  0  0  0  0  0  0  0  0  0  0  0
  -30.1007   -0.5869   24.8431 C   0  0  0  0  0  0  0  0  0  0  0  0
  -30.5483   -0.4860   26.0428 C   0  0  0  0  0  0  0  0  0  0  0  0
  -31.8618   -0.7246   26.3349 C   0  0  0  0  0  0  0  0  0  0  0  0
  -32.7961   -1.6780   25.3152 Cl  0  0  0  0  0  0  0  0  0  0  0  0
  -32.2769   -1.1829   27.7219 N   0  0  0  0  0  0  0  0  0  0  0  0
  -24.3977    3.3924   28.1049 O   0  0  0  0  0  0  0  0  0  0  0  0
  -29.6783   -1.6235   30.0508 O   0  0  0  0  0  0  0  0  0  0  0  0
  -32.6711   -0.2623   28.6125 C   0  0  0  0  0  0  0  0  0  0  0  0
  -32.5550    1.0231   28.4944 C   0  0  0  0  0  0  0  0  0  0  0  0
  -32.5625    1.9148   29.5773 C   0  0  0  0  0  0  0  0  0  0  0  0
  -32.2999    3.3084   29.4462 C   0  0  0  0  0  0  0  0  0  0  0  0
  -32.0156    3.7868   28.1707 C   0  0  0  0  0  0  0  0  0  0  0  0
  -31.9705    2.9490   27.0792 C   0  0  0  0  0  0  0  0  0  0  0  0
  3  4  1  0
  8  9  1  0
  7 10  1  0
  9 10  1  0
  4 11  1  0
 11 12  1  0
 12 13  2  0
 13 14  1  0
  8 15  1  0
 14 15  2  0
 12 16  1  0
 16 17  1  0
 17 18  2  3
 18 19  1  0
 19 20  1  0
 19 21  1  0
  9 22  2  0
  2 23  1  0
 21 24  1  0
 24 25  2  3
 25 26  1  0
 26 27  2  3
 27 28  1  0
 28 29  2  0
  8  4  1  0
  1  2  2  0
  2  5  1  0
  5  6  2  0
  6  7  1  0
  7  3  2  0
  3  1  1  0
M  END

$$$$
