No_4138-gen_results/8p0m/2024-11-27-11-27-31/
     RDKit          3D

 28 31  0  0  0  0  0  0  0  0999 V2000
  -28.0162   -0.8135   28.8779 C   0  0  0  0  0  0  0  0  0  0  0  0
  -28.4690   -0.7850   29.8287 C   0  0  0  0  0  0  0  0  0  0  0  0
  -28.1816    0.4277   28.1134 C   0  0  0  0  0  0  0  0  0  0  0  0
  -27.4498    0.6435   26.8500 C   0  0  0  0  0  0  0  0  0  0  0  0
  -27.8596    1.4573   25.9076 C   0  0  0  0  0  0  0  0  0  0  0  0
  -29.4263    0.1097   30.4178 C   0  0  0  0  0  0  0  0  0  0  0  0
  -29.6233    1.2198   29.7351 C   0  0  0  0  0  0  0  0  0  0  0  0
  -28.9609    1.4529   28.5513 C   0  0  0  0  0  0  0  0  0  0  0  0
  -27.1733    1.5743   24.7028 C   0  0  0  0  0  0  0  0  0  0  0  0
  -26.0892    0.7468   24.4126 C   0  0  0  0  0  0  0  0  0  0  0  0
  -25.6364   -0.1191   25.3972 C   0  0  0  0  0  0  0  0  0  0  0  0
  -26.2807   -0.2063   26.5817 C   0  0  0  0  0  0  0  0  0  0  0  0
  -30.4416    2.1903   30.2157 F   0  0  0  0  0  0  0  0  0  0  0  0
  -28.2483   -2.3449   30.8175 Cl  0  0  0  0  0  0  0  0  0  0  0  0
  -29.9723   -0.1957   31.6801 O   0  0  0  0  0  0  0  0  0  0  0  0
  -29.2772   -0.0905   32.7264 C   0  0  0  0  0  0  0  0  0  0  0  0
  -29.6665   -1.0438   33.7410 C   0  0  0  0  0  0  0  0  0  0  0  0
  -28.7676   -1.1970   34.7991 C   0  0  0  0  0  0  0  0  0  0  0  0
  -27.5545   -0.4578   34.9124 C   0  0  0  0  0  0  0  0  0  0  0  0
  -27.2545    0.4067   33.8127 C   0  0  0  0  0  0  0  0  0  0  0  0
  -28.0997    0.4754   32.7846 C   0  0  0  0  0  0  0  0  0  0  0  0
  -25.7713    1.3102   33.9690 Cl  0  0  0  0  0  0  0  0  0  0  0  0
  -30.8448   -1.8180   33.6870 C   0  0  0  0  0  0  0  0  0  0  0  0
  -30.8449   -3.0800   33.8930 C   0  0  0  0  0  0  0  0  0  0  0  0
  -32.0208   -3.8921   33.8142 C   0  0  0  0  0  0  0  0  0  0  0  0
  -33.1536   -3.2551   33.3217 C   0  0  0  0  0  0  0  0  0  0  0  0
  -33.1573   -1.9011   33.0078 C   0  0  0  0  0  0  0  0  0  0  0  0
  -32.0259   -1.1680   33.2072 C   0  0  0  0  0  0  0  0  0  0  0  0
  3  4  1  0
  7 13  1  0
  2 14  1  0
  6 15  1  0
 15 16  1  0
 20 22  1  0
 17 23  1  0
 23 24  2  0
 24 25  1  0
 25 26  2  0
 26 27  1  0
 27 28  2  0
 28 23  1  0
  4  5  2  0
  5  9  1  0
  9 10  2  0
 10 11  1  0
 11 12  2  0
 12  4  1  0
  1  2  2  0
  2  6  1  0
  6  7  2  0
  7  8  1  0
  8  3  2  0
  3  1  1  0
 16 17  1  0
 17 18  2  0
 18 19  1  0
 19 20  2  0
 20 21  1  0
 21 16  2  0
M  END

$$$$
