No_4659-gen_results/8p0m/2024-11-27-11-27-31/
     RDKit          3D

 22 23  0  0  0  0  0  0  0  0999 V2000
  -28.0162   -0.8135   28.8779 C   0  0  0  0  0  0  0  0  0  0  0  0
  -27.0636   -0.1189   28.6079 C   0  0  0  0  0  0  0  0  0  0  0  0
  -26.9287    1.1713   29.0083 C   0  0  0  0  0  0  0  0  0  0  0  0
  -27.9560    1.7411   29.7840 C   0  0  0  0  0  0  0  0  0  0  0  0
  -29.0569   -0.3271   29.7466 C   0  0  0  0  0  0  0  0  0  0  0  0
  -28.9828    0.9722   30.1516 C   0  0  0  0  0  0  0  0  0  0  0  0
  -25.8815   -0.6260   27.7945 C   0  0  0  0  0  0  0  0  0  0  0  0
  -24.5472   -0.2311   28.2389 C   0  0  0  0  0  0  0  0  0  0  0  0
  -23.6883   -0.7975   28.8778 C   0  0  0  0  0  0  0  0  0  0  0  0
  -23.8223   -2.0395   29.6090 C   0  0  0  0  0  0  0  0  0  0  0  0
  -24.1473    1.1077   27.5604 C   0  0  0  0  0  0  0  0  0  0  0  0
  -22.8372    1.5077   27.9052 C   0  0  0  0  0  0  0  0  0  0  0  0
  -21.9270    0.8670   28.6498 C   0  0  0  0  0  0  0  0  0  0  0  0
  -22.2986   -0.2722   29.1755 C   0  0  0  0  0  0  0  0  0  0  0  0
  -27.8243    3.1848   30.2452 C   0  0  0  0  0  0  0  0  0  0  0  0
  -27.2024    3.9076   29.6917 O   0  0  0  0  0  0  0  0  0  0  0  0
  -28.4819    3.5306   31.4073 N   0  0  0  0  0  0  0  0  0  0  0  0
  -28.4006    4.8909   31.8941 C   0  0  0  0  0  0  0  0  0  0  0  0
  -27.6925    5.7487   31.3992 C   0  0  0  0  0  0  0  0  0  0  0  0
  -27.6416    6.7545   31.8098 F   0  0  0  0  0  0  0  0  0  0  0  0
  -26.3130    5.2262   31.4615 F   0  0  0  0  0  0  0  0  0  0  0  0
  -27.9114    5.8837   30.0602 F   0  0  0  0  0  0  0  0  0  0  0  0
  2  7  1  0
  7  8  1  0
  9 10  1  0
  4 15  1  0
 15 16  2  0
 15 17  1  0
 17 18  1  0
 18 19  1  0
 19 20  1  0
 19 21  1  0
 19 22  1  0
  8  9  2  0
  9 14  1  0
 14 13  2  0
 13 12  1  0
 12 11  2  0
 11  8  1  0
  1  2  2  0
  2  3  1  0
  3  4  2  0
  4  6  1  0
  6  5  2  0
  5  1  1  0
M  END

$$$$
