No_4686-gen_results/8p0m/2024-11-27-11-27-31/
     RDKit          3D

 19 20  0  0  0  0  0  0  0  0999 V2000
  -28.0162   -0.8135   28.8779 C   0  0  0  0  0  0  0  0  0  0  0  0
  -27.0636   -0.1190   28.6079 C   0  0  0  0  0  0  0  0  0  0  0  0
  -25.7647   -0.3897   29.0360 C   0  0  0  0  0  0  0  0  0  0  0  0
  -25.5296   -1.5302   29.9014 C   0  0  0  0  0  0  0  0  0  0  0  0
  -26.6888   -2.2893   30.1810 C   0  0  0  0  0  0  0  0  0  0  0  0
  -27.8727   -1.9508   29.7373 C   0  0  0  0  0  0  0  0  0  0  0  0
  -28.9304   -2.7298   30.1154 O   0  0  0  0  0  0  0  0  0  0  0  0
  -24.3649    0.5656   28.6892 Cl  0  0  0  0  0  0  0  0  0  0  0  0
  -30.0298   -2.1677   30.6643 C   0  0  0  0  0  0  0  0  0  0  0  0
  -31.1169   -2.7261   30.2402 C   0  0  0  0  0  0  0  0  0  0  0  0
  -32.3956   -2.1211   30.5449 C   0  0  0  0  0  0  0  0  0  0  0  0
  -32.3546   -0.9899   31.4168 C   0  0  0  0  0  0  0  0  0  0  0  0
  -31.1752   -0.5058   31.8577 C   0  0  0  0  0  0  0  0  0  0  0  0
  -29.9452   -1.0485   31.4739 C   0  0  0  0  0  0  0  0  0  0  0  0
  -27.1561    1.1130   27.6781 C   0  0  0  0  0  0  0  0  0  0  0  0
  -27.2998    2.2602   28.2170 C   0  0  0  0  0  0  0  0  0  0  0  0
  -27.2879    0.8306   26.3245 C   0  0  0  0  0  0  0  0  0  0  0  0
  -27.0186   -0.2196   25.6530 C   0  0  0  0  0  0  0  0  0  0  0  0
  -27.6185    3.3683   27.4266 C   0  0  0  0  0  0  0  0  0  0  0  0
  6  7  1  0
  3  8  1  0
  7  9  1  0
  2 15  1  0
 15 16  1  0
 15 17  1  0
 17 18  2  0
 16 19  2  0
  1  2  2  0
  2  3  1  0
  3  4  2  0
  4  5  1  0
  5  6  2  0
  6  1  1  0
  9 10  2  0
 10 11  1  0
 11 12  2  0
 12 13  1  0
 13 14  2  0
 14  9  1  0
M  END

$$$$
