No_4458-gen_results/8p0m/2024-11-27-11-27-31/
     RDKit          3D

 21 22  0  0  0  0  0  0  0  0999 V2000
  -28.0162   -0.8135   28.8779 C   0  0  0  0  0  0  0  0  0  0  0  0
  -27.0636   -0.1190   28.6079 C   0  0  0  0  0  0  0  0  0  0  0  0
  -25.7923   -0.4302   29.0761 C   0  0  0  0  0  0  0  0  0  0  0  0
  -24.5456    0.3494   28.8225 C   0  0  0  0  0  0  0  0  0  0  0  0
  -24.6586    1.4196   27.8878 C   0  0  0  0  0  0  0  0  0  0  0  0
  -25.9471    1.6811   27.3792 C   0  0  0  0  0  0  0  0  0  0  0  0
  -27.0439    0.9739   27.6871 C   0  0  0  0  0  0  0  0  0  0  0  0
  -28.6597   -0.4600   30.2006 C   0  0  0  0  0  0  0  0  0  0  0  0
  -29.7497   -1.2486   30.6773 C   0  0  0  0  0  0  0  0  0  0  0  0
  -23.4472    2.1466   27.5918 C   0  0  0  0  0  0  0  0  0  0  0  0
  -22.2595    1.7395   28.0790 N   0  0  0  0  0  0  0  0  0  0  0  0
  -23.5383    3.2303   26.9605 O   0  0  0  0  0  0  0  0  0  0  0  0
  -30.1951   -2.1871   29.8849 C   0  0  0  0  0  0  0  0  0  0  0  0
  -31.3221   -2.9397   30.4496 C   0  0  0  0  0  0  0  0  0  0  0  0
  -31.8249   -2.6618   31.6212 C   0  0  0  0  0  0  0  0  0  0  0  0
  -31.3429   -1.6721   32.4331 C   0  0  0  0  0  0  0  0  0  0  0  0
  -30.2739   -0.9174   31.9851 C   0  0  0  0  0  0  0  0  0  0  0  0
  -28.1295    0.6297   31.0329 C   0  0  0  0  0  0  0  0  0  0  0  0
  -27.2321    1.4937   30.6955 C   0  0  0  0  0  0  0  0  0  0  0  0
  -26.9614    2.5180   31.7481 C   0  0  0  0  0  0  0  0  0  0  0  0
  -27.5490    2.4893   32.9506 C   0  0  0  0  0  0  0  0  0  0  0  0
  1  2  1  0
  1  8  1  0
  8  9  1  0
  5 10  1  0
 10 11  1  0
 10 12  2  0
  8 18  1  0
 18 19  1  0
 19 20  2  3
 20 21  1  0
  2  3  2  0
  3  4  1  0
  4  5  2  0
  5  6  1  0
  6  7  2  0
  7  2  1  0
  9 13  2  0
 13 14  1  0
 14 15  2  0
 15 16  1  0
 16 17  2  0
 17  9  1  0
M  END

$$$$
