No_4972-gen_results/8p0m/2024-11-27-11-27-31/
     RDKit          3D

 19 21  0  0  0  0  0  0  0  0999 V2000
  -28.1229   -1.3353   28.4874 O   0  0  0  0  0  0  0  0  0  0  0  0
  -27.0637   -0.8242   28.8687 C   0  0  0  0  0  0  0  0  0  0  0  0
  -26.9592    0.0926   29.7582 C   0  0  0  0  0  0  0  0  0  0  0  0
  -25.8011   -1.3566   28.3971 N   0  0  0  0  0  0  0  0  0  0  0  0
  -25.7368    0.7239   30.2099 C   0  0  0  0  0  0  0  0  0  0  0  0
  -24.5680   -0.8667   28.7917 C   0  0  0  0  0  0  0  0  0  0  0  0
  -23.3411   -1.4012   28.2557 C   0  0  0  0  0  0  0  0  0  0  0  0
  -24.4964    0.1962   29.7356 C   0  0  0  0  0  0  0  0  0  0  0  0
  -22.2182   -0.7298   28.8764 C   0  0  0  0  0  0  0  0  0  0  0  0
  -22.1355    0.2966   29.6843 C   0  0  0  0  0  0  0  0  0  0  0  0
  -23.2637    0.7675   30.1418 C   0  0  0  0  0  0  0  0  0  0  0  0
  -28.2326    0.5816   30.3551 C   0  0  0  0  0  0  0  0  0  0  0  0
  -28.9413    1.4760   29.9067 C   0  0  0  0  0  0  0  0  0  0  0  0
  -28.4482    2.4876   29.2359 C   0  0  0  0  0  0  0  0  0  0  0  0
  -29.3129    3.4558   28.5518 C   0  0  0  0  0  0  0  0  0  0  0  0
  -30.6528    3.3355   28.7322 C   0  0  0  0  0  0  0  0  0  0  0  0
  -30.3955    1.5216   30.2449 C   0  0  0  0  0  0  0  0  0  0  0  0
  -31.2076    2.4054   29.5439 C   0  0  0  0  0  0  0  0  0  0  0  0
  -28.5779   -0.2037   31.5910 C   0  0  0  0  0  0  0  0  0  0  0  0
  1  2  2  0
  2  3  1  0
  2  4  1  0
  4  6  1  0
  5  8  1  0
  3 12  1  0
 12 13  1  0
 12 19  1  0
  3  5  1  0
  6  7  2  0
  7  9  1  0
  9 10  2  0
 10 11  1  0
 11  8  2  0
  8  6  1  0
 13 14  2  0
 14 15  1  0
 15 16  2  0
 16 18  1  0
 18 17  2  0
 17 13  1  0
M  END

$$$$
