No_4182-gen_results/8p0m/2024-11-27-11-27-31/
     RDKit          3D

 35 37  0  0  0  0  0  0  0  0999 V2000
  -28.0162   -0.8135   28.8779 C   0  0  0  0  0  0  0  0  0  0  0  0
  -28.4690   -0.7850   29.8287 C   0  0  0  0  0  0  0  0  0  0  0  0
  -27.0871    0.2903   28.6377 C   0  0  0  0  0  0  0  0  0  0  0  0
  -26.8317    1.2487   29.5869 C   0  0  0  0  0  0  0  0  0  0  0  0
  -28.3914    0.0801   31.0065 C   0  0  0  0  0  0  0  0  0  0  0  0
  -27.4940    1.1521   30.7841 C   0  0  0  0  0  0  0  0  0  0  0  0
  -26.3109    0.3918   27.3640 C   0  0  0  0  0  0  0  0  0  0  0  0
  -25.5530   -0.4068   27.2286 F   0  0  0  0  0  0  0  0  0  0  0  0
  -27.2303    0.4033   26.3199 F   0  0  0  0  0  0  0  0  0  0  0  0
  -25.7069    1.6364   27.1432 F   0  0  0  0  0  0  0  0  0  0  0  0
  -29.3737   -1.7934   30.2447 F   0  0  0  0  0  0  0  0  0  0  0  0
  -27.2515    2.2073   31.8398 C   0  0  0  0  0  0  0  0  0  0  0  0
  -27.2582    2.0322   32.9449 O   0  0  0  0  0  0  0  0  0  0  0  0
  -26.8933    3.4002   31.2760 O   0  0  0  0  0  0  0  0  0  0  0  0
  -26.1424    4.2571   31.9513 C   0  0  0  0  0  0  0  0  0  0  0  0
  -24.9123    4.6612   31.3019 C   0  0  0  0  0  0  0  0  0  0  0  0
  -24.9060    4.5906   30.1977 O   0  0  0  0  0  0  0  0  0  0  0  0
  -24.1493    5.5128   31.9558 O   0  0  0  0  0  0  0  0  0  0  0  0
  -26.9446    5.4378   32.4207 C   0  0  0  0  0  0  0  0  0  0  0  0
  -27.6362    6.0787   31.4537 C   0  0  0  0  0  0  0  0  0  0  0  0
  -28.6567    6.6428   31.8347 C   0  0  0  0  0  0  0  0  0  0  0  0
  -29.4040    6.1819   32.5915 C   0  0  0  0  0  0  0  0  0  0  0  0
  -30.6847    6.7558   32.9988 C   0  0  0  0  0  0  0  0  0  0  0  0
  -31.0363    7.9393   32.3647 C   0  0  0  0  0  0  0  0  0  0  0  0
  -30.2859    8.4975   31.4053 C   0  0  0  0  0  0  0  0  0  0  0  0
  -29.0760    7.8571   31.0649 C   0  0  0  0  0  0  0  0  0  0  0  0
  -28.2284    8.4170   30.0261 C   0  0  0  0  0  0  0  0  0  0  0  0
  -27.3120    7.5756   29.4367 C   0  0  0  0  0  0  0  0  0  0  0  0
  -26.8768    6.5874   30.2245 C   0  0  0  0  0  0  0  0  0  0  0  0
  -26.5768    7.9539   28.2971 C   0  0  0  0  0  0  0  0  0  0  0  0
  -25.7933    7.0033   27.6814 C   0  0  0  0  0  0  0  0  0  0  0  0
  -26.3411    5.8510   27.1230 C   0  0  0  0  0  0  0  0  0  0  0  0
  -25.8850    4.8663   27.3293 C   0  0  0  0  0  0  0  0  0  0  0  0
  -26.5140    3.6139   26.7763 C   0  0  0  0  0  0  0  0  0  0  0  0
  -27.6436    4.2597   26.3399 C   0  0  0  0  0  0  0  0  0  0  0  0
  3  7  1  0
  7  8  1  0
  7  9  1  0
  7 10  1  0
  2 11  1  0
  6 12  1  0
 12 13  2  0
 12 14  1  0
 14 15  1  0
 15 16  1  0
 16 17  1  0
 16 18  2  0
 15 19  1  0
 19 20  1  0
 28 30  1  0
 30 31  1  0
 31 32  1  0
 32 33  2  3
 33 34  1  0
 34 35  2  0
 21 22  2  0
 22 23  1  0
 23 24  2  0
 24 25  1  0
 25 26  2  0
  1  2  2  0
  2  5  1  0
  5  6  2  0
  6  4  1  0
  4  3  2  0
  3  1  1  0
 20 21  1  0
 21 26  1  0
 26 27  1  0
 27 28  2  0
 28 29  1  0
 29 20  2  0
M  END

$$$$
