No_4099-gen_results/8p0m/2024-11-27-11-27-31/
     RDKit          3D

 19 20  0  0  0  0  0  0  0  0999 V2000
  -28.0162   -0.8135   28.8779 C   0  0  0  0  0  0  0  0  0  0  0  0
  -27.0636   -0.1189   28.6079 C   0  0  0  0  0  0  0  0  0  0  0  0
  -27.0010    0.6913   27.4910 C   0  0  0  0  0  0  0  0  0  0  0  0
  -28.1373    0.7363   26.6350 C   0  0  0  0  0  0  0  0  0  0  0  0
  -29.2360    0.0765   27.0690 C   0  0  0  0  0  0  0  0  0  0  0  0
  -29.2177   -0.6429   28.1747 C   0  0  0  0  0  0  0  0  0  0  0  0
  -30.4152    0.1590   26.1819 C   0  0  0  0  0  0  0  0  0  0  0  0
  -31.3727   -0.5052   26.4854 N   0  0  0  0  0  0  0  0  0  0  0  0
  -30.5283    1.1022   25.3699 O   0  0  0  0  0  0  0  0  0  0  0  0
  -32.2939   -0.8421   25.8823 C   0  0  0  0  0  0  0  0  0  0  0  0
  -25.8681   -0.1895   29.3637 F   0  0  0  0  0  0  0  0  0  0  0  0
  -28.0496   -1.5924   30.0733 O   0  0  0  0  0  0  0  0  0  0  0  0
  -28.7073   -1.6547   31.0327 C   0  0  0  0  0  0  0  0  0  0  0  0
  -33.0474   -1.9498   26.1955 C   0  0  0  0  0  0  0  0  0  0  0  0
  -32.8450   -2.5944   27.3476 C   0  0  0  0  0  0  0  0  0  0  0  0
  -33.4241   -3.8053   27.6900 C   0  0  0  0  0  0  0  0  0  0  0  0
  -34.2411   -4.3585   26.7881 C   0  0  0  0  0  0  0  0  0  0  0  0
  -34.5337   -3.8604   25.5383 C   0  0  0  0  0  0  0  0  0  0  0  0
  -33.8857   -2.6781   25.2549 C   0  0  0  0  0  0  0  0  0  0  0  0
  5  7  1  0
  7  8  1  0
  7  9  2  0
  8 10  1  0
  2 11  1  0
  1 12  1  0
 12 13  1  0
 10 14  1  0
  1  2  2  0
  2  3  1  0
  3  4  2  0
  4  5  1  0
  5  6  2  0
  6  1  1  0
 14 15  2  0
 15 16  1  0
 16 17  2  0
 17 18  1  0
 18 19  2  0
 19 14  1  0
M  END

$$$$
