No_4548-gen_results/8p0m/2024-11-27-11-27-31/
     RDKit          3D

 17 18  0  0  0  0  0  0  0  0999 V2000
  -28.0162   -0.8135   28.8779 C   0  0  0  0  0  0  0  0  0  0  0  0
  -27.0636   -0.1189   28.6079 C   0  0  0  0  0  0  0  0  0  0  0  0
  -26.9287    1.1713   29.0083 C   0  0  0  0  0  0  0  0  0  0  0  0
  -27.9560    1.7411   29.7840 C   0  0  0  0  0  0  0  0  0  0  0  0
  -29.0569   -0.3271   29.7466 C   0  0  0  0  0  0  0  0  0  0  0  0
  -30.1704   -1.1582   30.1327 C   0  0  0  0  0  0  0  0  0  0  0  0
  -28.9772    0.9577   30.1786 C   0  0  0  0  0  0  0  0  0  0  0  0
  -30.9682   -0.9913   31.4281 Cl  0  0  0  0  0  0  0  0  0  0  0  0
  -30.9259   -1.4389   28.9802 F   0  0  0  0  0  0  0  0  0  0  0  0
  -25.9680   -0.5962   27.8302 O   0  0  0  0  0  0  0  0  0  0  0  0
  -25.1689    0.2998   27.1195 C   0  0  0  0  0  0  0  0  0  0  0  0
  -24.2463    0.8284   27.1880 C   0  0  0  0  0  0  0  0  0  0  0  0
  -25.7694    0.3325   25.6246 C   0  0  0  0  0  0  0  0  0  0  0  0
  -23.4930    1.7119   26.3595 C   0  0  0  0  0  0  0  0  0  0  0  0
  -25.0645    1.0637   24.7244 C   0  0  0  0  0  0  0  0  0  0  0  0
  -23.8903    1.7573   25.0613 C   0  0  0  0  0  0  0  0  0  0  0  0
  -29.5200   -2.4412   30.3108 F   0  0  0  0  0  0  0  0  0  0  0  0
  5  6  1  0
  6  8  1  0
  6  9  1  0
  2 10  1  0
 10 11  1  0
  6 17  1  0
 11 12  2  0
 12 14  1  0
 14 16  2  0
 16 15  1  0
 15 13  2  0
 13 11  1  0
  1  2  2  0
  2  3  1  0
  3  4  2  0
  4  7  1  0
  7  5  2  0
  5  1  1  0
M  END

$$$$
