No_4097-gen_results/8p0m/2024-11-27-11-27-31/
     RDKit          3D

 22 23  0  0  0  0  0  0  0  0999 V2000
  -28.0162   -0.8135   28.8779 C   0  0  0  0  0  0  0  0  0  0  0  0
  -28.4690   -0.7850   29.8287 C   0  0  0  0  0  0  0  0  0  0  0  0
  -27.0143   -1.6184   28.6838 F   0  0  0  0  0  0  0  0  0  0  0  0
  -29.6471    0.0499   30.1551 C   0  0  0  0  0  0  0  0  0  0  0  0
  -29.9936    0.9316   29.1198 C   0  0  0  0  0  0  0  0  0  0  0  0
  -29.2939    0.9017   27.9571 C   0  0  0  0  0  0  0  0  0  0  0  0
  -28.2303    0.0419   27.8206 C   0  0  0  0  0  0  0  0  0  0  0  0
  -31.1213    1.8580   29.3026 C   0  0  0  0  0  0  0  0  0  0  0  0
  -31.5641    2.0168   30.4079 F   0  0  0  0  0  0  0  0  0  0  0  0
  -30.6883    3.0905   28.8178 F   0  0  0  0  0  0  0  0  0  0  0  0
  -32.0828    1.4191   28.3772 F   0  0  0  0  0  0  0  0  0  0  0  0
  -28.2082   -1.6842   30.9033 F   0  0  0  0  0  0  0  0  0  0  0  0
  -27.4990   -0.0273   26.6410 O   0  0  0  0  0  0  0  0  0  0  0  0
  -27.7980    0.6493   25.5646 C   0  0  0  0  0  0  0  0  0  0  0  0
  -26.9775    1.3263   25.2319 C   0  0  0  0  0  0  0  0  0  0  0  0
  -28.9774    0.3768   24.8312 C   0  0  0  0  0  0  0  0  0  0  0  0
  -25.7150    1.6614   25.9181 C   0  0  0  0  0  0  0  0  0  0  0  0
  -25.2158    2.7474   26.5422 C   0  0  0  0  0  0  0  0  0  0  0  0
  -23.9839    2.9097   27.0994 C   0  0  0  0  0  0  0  0  0  0  0  0
  -23.0493    1.8727   27.0541 C   0  0  0  0  0  0  0  0  0  0  0  0
  -23.4865    0.6506   26.5495 C   0  0  0  0  0  0  0  0  0  0  0  0
  -24.7096    0.5521   25.9557 C   0  0  0  0  0  0  0  0  0  0  0  0
  1  3  1  0
  5  8  1  0
  8  9  1  0
  8 10  1  0
  8 11  1  0
  2 12  1  0
  7 13  1  0
 13 14  1  0
 14 15  2  3
 14 16  1  0
 15 17  1  0
 17 18  2  0
 18 19  1  0
 19 20  2  0
 20 21  1  0
 21 22  2  0
 22 17  1  0
  1  2  2  0
  2  4  1  0
  4  5  2  0
  5  6  1  0
  6  7  2  0
  7  1  1  0
M  END

$$$$
