No_4179-gen_results/8p0m/2024-11-27-11-27-31/
     RDKit          3D

 14 15  0  0  0  0  0  0  0  0999 V2000
  -28.0162   -0.8135   28.8779 C   0  0  0  0  0  0  0  0  0  0  0  0
  -27.0636   -0.1189   28.6079 C   0  0  0  0  0  0  0  0  0  0  0  0
  -26.9287    1.1713   29.0083 C   0  0  0  0  0  0  0  0  0  0  0  0
  -27.9560    1.7411   29.7840 C   0  0  0  0  0  0  0  0  0  0  0  0
  -29.0569   -0.3271   29.7466 C   0  0  0  0  0  0  0  0  0  0  0  0
  -28.9828    0.9722   30.1516 C   0  0  0  0  0  0  0  0  0  0  0  0
  -26.0660   -0.7857   27.8860 N   0  0  0  0  0  0  0  0  0  0  0  0
  -24.6295   -0.5615   28.2005 C   0  0  0  0  0  0  0  0  0  0  0  0
  -23.9264    0.4845   27.7649 C   0  0  0  0  0  0  0  0  0  0  0  0
  -22.5945    0.6176   28.1917 C   0  0  0  0  0  0  0  0  0  0  0  0
  -22.0055   -0.3764   28.9797 C   0  0  0  0  0  0  0  0  0  0  0  0
  -24.0574   -1.4703   29.0955 C   0  0  0  0  0  0  0  0  0  0  0  0
  -22.7516   -1.4055   29.4389 C   0  0  0  0  0  0  0  0  0  0  0  0
  -21.7206    1.7626   27.7221 C   0  0  0  0  0  0  0  0  0  0  0  0
  2  7  1  0
  7  8  1  0
 10 14  1  0
  1  2  2  0
  2  3  1  0
  3  4  2  0
  4  6  1  0
  6  5  2  0
  5  1  1  0
  8  9  2  0
  9 10  1  0
 10 11  2  0
 11 13  1  0
 13 12  2  0
 12  8  1  0
M  END

$$$$
