No_4957-gen_results/8p0m/2024-11-27-11-27-31/
     RDKit          3D

 14 15  0  0  0  0  0  0  0  0999 V2000
  -28.0162   -0.8135   28.8779 C   0  0  0  0  0  0  0  0  0  0  0  0
  -27.0636   -0.1189   28.6079 C   0  0  0  0  0  0  0  0  0  0  0  0
  -25.7923   -0.4302   29.0761 C   0  0  0  0  0  0  0  0  0  0  0  0
  -25.5756   -1.5654   29.9363 C   0  0  0  0  0  0  0  0  0  0  0  0
  -26.7354   -2.3004   30.2173 C   0  0  0  0  0  0  0  0  0  0  0  0
  -27.9184   -1.9537   29.7629 C   0  0  0  0  0  0  0  0  0  0  0  0
  -27.1463    1.2916   27.6407 Cl  0  0  0  0  0  0  0  0  0  0  0  0
  -29.0010   -2.7139   30.1143 O   0  0  0  0  0  0  0  0  0  0  0  0
  -24.5175    0.3583   28.7657 C   0  0  0  0  0  0  0  0  0  0  0  0
  -23.3998   -0.0037   28.8607 C   0  0  0  0  0  0  0  0  0  0  0  0
  -22.2224    0.7787   28.5148 C   0  0  0  0  0  0  0  0  0  0  0  0
  -22.4750    1.8373   27.6135 C   0  0  0  0  0  0  0  0  0  0  0  0
  -23.7715    2.2675   27.3748 C   0  0  0  0  0  0  0  0  0  0  0  0
  -24.7837    1.5348   27.8838 C   0  0  0  0  0  0  0  0  0  0  0  0
  2  7  1  0
  6  8  1  0
  3  9  1  0
  1  2  2  0
  2  3  1  0
  3  4  2  0
  4  5  1  0
  5  6  2  0
  6  1  1  0
  9 10  2  0
 10 11  1  0
 11 12  2  0
 12 13  1  0
 13 14  2  0
 14  9  1  0
M  END

$$$$
