No_4131-gen_results/8p0m/2024-11-27-11-27-31/
     RDKit          3D

 13 13  0  0  0  0  0  0  0  0999 V2000
  -28.1493   -0.8198   28.9079 Cl  0  0  0  0  0  0  0  0  0  0  0  0
  -26.9116   -0.0797   28.9452 C   0  0  0  0  0  0  0  0  0  0  0  0
  -26.0490   -0.0718   27.8591 C   0  0  0  0  0  0  0  0  0  0  0  0
  -26.5011    0.6020   26.7507 C   0  0  0  0  0  0  0  0  0  0  0  0
  -25.7098    0.5635   25.4964 C   0  0  0  0  0  0  0  0  0  0  0  0
  -24.3930    0.2711   25.6532 C   0  0  0  0  0  0  0  0  0  0  0  0
  -23.8820    0.0281   26.8869 C   0  0  0  0  0  0  0  0  0  0  0  0
  -24.6879   -0.2122   27.9888 C   0  0  0  0  0  0  0  0  0  0  0  0
  -27.0093    1.3026   29.5855 C   0  0  0  0  0  0  0  0  0  0  0  0
  -26.2449    1.4624   30.6712 C   0  0  0  0  0  0  0  0  0  0  0  0
  -25.4693    0.4394   31.2772 C   0  0  0  0  0  0  0  0  0  0  0  0
  -24.3140    0.7402   31.9548 C   0  0  0  0  0  0  0  0  0  0  0  0
  -24.0015    2.1354   32.2048 C   0  0  0  0  0  0  0  0  0  0  0  0
  1  2  1  0
  2  3  1  0
  2  9  1  0
  9 10  2  3
 10 11  1  0
 11 12  2  3
 12 13  1  0
  3  4  2  0
  4  5  1  0
  5  6  2  0
  6  7  1  0
  7  8  2  0
  8  3  1  0
M  END

$$$$
