No_4799-gen_results/8p0m/2024-11-27-11-27-31/
     RDKit          3D

 24 25  0  0  0  0  0  0  0  0999 V2000
  -28.0162   -0.8135   28.8779 C   0  0  0  0  0  0  0  0  0  0  0  0
  -27.0636   -0.1189   28.6079 C   0  0  0  0  0  0  0  0  0  0  0  0
  -26.9287    1.1713   29.0083 C   0  0  0  0  0  0  0  0  0  0  0  0
  -25.7702    2.0341   28.6884 C   0  0  0  0  0  0  0  0  0  0  0  0
  -24.7141    1.4431   27.9188 C   0  0  0  0  0  0  0  0  0  0  0  0
  -24.8590    0.0783   27.5836 C   0  0  0  0  0  0  0  0  0  0  0  0
  -25.9647   -0.6606   27.9164 C   0  0  0  0  0  0  0  0  0  0  0  0
  -29.0591   -0.5087   28.2818 F   0  0  0  0  0  0  0  0  0  0  0  0
  -27.9950   -1.8369   29.6552 F   0  0  0  0  0  0  0  0  0  0  0  0
  -23.5400    2.1438   27.5689 C   0  0  0  0  0  0  0  0  0  0  0  0
  -22.3778    2.1966   27.9276 N   0  0  0  0  0  0  0  0  0  0  0  0
  -23.7701    2.9385   26.2626 C   0  0  0  0  0  0  0  0  0  0  0  0
  -22.0068    1.2668   28.8672 C   0  0  0  0  0  0  0  0  0  0  0  0
  -20.8336    0.4219   28.4442 C   0  0  0  0  0  0  0  0  0  0  0  0
  -22.6432    1.0456   29.8829 O   0  0  0  0  0  0  0  0  0  0  0  0
  -25.7029    3.4176   29.1023 C   0  0  0  0  0  0  0  0  0  0  0  0
  -26.8822    3.8928   29.5280 O   0  0  0  0  0  0  0  0  0  0  0  0
  -26.9394    5.2291   29.6497 C   0  0  0  0  0  0  0  0  0  0  0  0
  -26.0001    5.8433   29.2447 C   0  0  0  0  0  0  0  0  0  0  0  0
  -24.8860    5.3967   28.4868 C   0  0  0  0  0  0  0  0  0  0  0  0
  -24.8491    4.1518   28.4590 C   0  0  0  0  0  0  0  0  0  0  0  0
  -24.1083    3.7606   27.3752 F   0  0  0  0  0  0  0  0  0  0  0  0
  -24.3166    2.8313   25.2810 O   0  0  0  0  0  0  0  0  0  0  0  0
  -22.5662    3.3519   25.7904 F   0  0  0  0  0  0  0  0  0  0  0  0
  1  2  1  0
  1  8  1  0
  1  9  1  0
  5 10  1  0
 10 11  2  3
 10 12  1  0
 11 13  1  0
 13 14  1  0
 13 15  2  0
  4 16  1  0
 16 17  1  0
 17 18  1  0
 18 19  2  0
 19 20  1  0
 16 21  1  0
 20 21  1  0
 21 22  1  0
 12 23  2  0
 12 24  1  0
  2  3  2  0
  3  4  1  0
  4  5  2  0
  5  6  1  0
  6  7  2  0
  7  2  1  0
M  END

$$$$
