No_4805-gen_results/8p0m/2024-11-27-11-27-31/
     RDKit          3D

 26 29  0  0  0  0  0  0  0  0999 V2000
  -28.0162   -0.8135   28.8779 C   0  0  0  0  0  0  0  0  0  0  0  0
  -27.0636   -0.1189   28.6079 C   0  0  0  0  0  0  0  0  0  0  0  0
  -26.8756    1.1325   28.9134 C   0  0  0  0  0  0  0  0  0  0  0  0
  -27.9014    1.8066   29.6436 C   0  0  0  0  0  0  0  0  0  0  0  0
  -28.9449    1.0388   30.0360 C   0  0  0  0  0  0  0  0  0  0  0  0
  -29.0273   -0.2890   29.7051 C   0  0  0  0  0  0  0  0  0  0  0  0
  -25.6959    1.9505   28.4764 C   0  0  0  0  0  0  0  0  0  0  0  0
  -25.0986    1.9116   27.6630 N   0  0  0  0  0  0  0  0  0  0  0  0
  -24.8078    1.1556   26.8348 C   0  0  0  0  0  0  0  0  0  0  0  0
  -23.8515    1.4008   25.7600 C   0  0  0  0  0  0  0  0  0  0  0  0
  -24.3262    3.0973   27.1686 C   0  0  0  0  0  0  0  0  0  0  0  0
  -23.5082    2.7182   25.9959 C   0  0  0  0  0  0  0  0  0  0  0  0
  -25.3380    2.7763   29.6420 O   0  0  0  0  0  0  0  0  0  0  0  0
  -30.0513   -1.1168   30.0482 O   0  0  0  0  0  0  0  0  0  0  0  0
  -30.3585   -1.2280   31.3697 C   0  0  0  0  0  0  0  0  0  0  0  0
  -30.5405   -2.2242   31.7981 C   0  0  0  0  0  0  0  0  0  0  0  0
  -30.8157   -2.5104   33.2800 C   0  0  0  0  0  0  0  0  0  0  0  0
  -30.8927   -1.4001   34.1220 C   0  0  0  0  0  0  0  0  0  0  0  0
  -30.6597   -0.1754   33.5359 C   0  0  0  0  0  0  0  0  0  0  0  0
  -30.3529   -0.0466   32.2357 C   0  0  0  0  0  0  0  0  0  0  0  0
  -30.6996    1.0348   34.4342 C   0  0  0  0  0  0  0  0  0  0  0  0
  -30.1934    1.2043   35.3734 C   0  0  0  0  0  0  0  0  0  0  0  0
  -31.5299    2.1020   33.7752 C   0  0  0  0  0  0  0  0  0  0  0  0
  -31.7309    3.2771   34.4686 C   0  0  0  0  0  0  0  0  0  0  0  0
  -30.3076    2.4194   36.2334 C   0  0  0  0  0  0  0  0  0  0  0  0
  -31.0933    3.4326   35.7029 C   0  0  0  0  0  0  0  0  0  0  0  0
  3  7  1  0
  7  8  1  0
  8  9  1  0
  9 10  2  0
  8 11  1  0
 10 12  1  0
 11 12  2  0
  7 13  2  0
  6 14  1  0
 14 15  1  0
 19 21  1  0
 15 16  2  0
 16 17  1  0
 17 18  2  0
 18 19  1  0
 19 20  2  0
 20 15  1  0
  1  2  2  0
  2  3  1  0
  3  4  2  0
  4  5  1  0
  5  6  2  0
  6  1  1  0
 21 22  2  0
 22 25  1  0
 25 26  2  0
 26 24  1  0
 24 23  2  0
 23 21  1  0
M  END

$$$$
