No_4577-gen_results/8p0m/2024-11-27-11-27-31/
     RDKit          3D

 26 30  0  0  0  0  0  0  0  0999 V2000
  -28.0162   -0.8135   28.8779 C   0  0  0  0  0  0  0  0  0  0  0  0
  -28.4690   -0.7850   29.8287 C   0  0  0  0  0  0  0  0  0  0  0  0
  -27.1356    0.2359   28.5352 C   0  0  0  0  0  0  0  0  0  0  0  0
  -26.3351    0.2900   27.2835 C   0  0  0  0  0  0  0  0  0  0  0  0
  -28.3692    0.1957   30.9236 C   0  0  0  0  0  0  0  0  0  0  0  0
  -27.5158    1.2655   30.6540 C   0  0  0  0  0  0  0  0  0  0  0  0
  -26.8411    1.2942   29.4761 C   0  0  0  0  0  0  0  0  0  0  0  0
  -25.6774    1.5198   26.9774 C   0  0  0  0  0  0  0  0  0  0  0  0
  -24.6512    1.5543   26.2096 C   0  0  0  0  0  0  0  0  0  0  0  0
  -23.8845    2.8925   26.0981 C   0  0  0  0  0  0  0  0  0  0  0  0
  -24.3714    4.0011   26.8162 C   0  0  0  0  0  0  0  0  0  0  0  0
  -25.5144    3.8796   27.5451 C   0  0  0  0  0  0  0  0  0  0  0  0
  -26.1261    2.6350   27.7528 C   0  0  0  0  0  0  0  0  0  0  0  0
  -26.3397    2.5763   29.1963 N   0  0  0  0  0  0  0  0  0  0  0  0
  -26.1383    3.5495   30.1204 C   0  0  0  0  0  0  0  0  0  0  0  0
  -25.3347    3.2625   31.2206 C   0  0  0  0  0  0  0  0  0  0  0  0
  -25.0936    4.3597   32.1220 C   0  0  0  0  0  0  0  0  0  0  0  0
  -25.5612    5.6658   31.8184 C   0  0  0  0  0  0  0  0  0  0  0  0
  -25.6736    4.9758   29.8152 C   0  0  0  0  0  0  0  0  0  0  0  0
  -26.0212    6.0065   30.6911 C   0  0  0  0  0  0  0  0  0  0  0  0
  -25.5443    5.0967   28.3252 C   0  0  0  0  0  0  0  0  0  0  0  0
  -25.1797    6.1978   27.9929 O   0  0  0  0  0  0  0  0  0  0  0  0
  -26.3198   -0.6411   26.5202 O   0  0  0  0  0  0  0  0  0  0  0  0
  -25.3629    6.7496   32.8776 C   0  0  0  0  0  0  0  0  0  0  0  0
  -25.5436    6.5100   34.0495 C   0  0  0  0  0  0  0  0  0  0  0  0
  -25.3800    7.4968   35.1361 C   0  0  0  0  0  0  0  0  0  0  0  0
  3  4  1  0
  4  8  1  0
  7 14  1  0
 13 14  1  0
 14 15  1  0
 12 21  1  0
 19 21  1  0
 21 22  2  0
  4 23  2  0
 18 24  1  0
 24 25  2  3
 25 26  1  0
  1  2  2  0
  2  5  1  0
  5  6  2  0
  6  7  1  0
  7  3  2  0
  3  1  1  0
 15 16  2  0
 16 17  1  0
 17 18  2  0
 18 20  1  0
 20 19  2  0
 19 15  1  0
  8  9  2  0
  9 10  1  0
 10 11  2  0
 11 12  1  0
 12 13  2  0
 13  8  1  0
M  END

$$$$
