No_4091-gen_results/8p0m/2024-11-27-11-27-31/
     RDKit          3D

 31 32  0  0  0  0  0  0  0  0999 V2000
  -28.0162   -0.8135   28.8779 C   0  0  0  0  0  0  0  0  0  0  0  0
  -27.0636   -0.1189   28.6079 C   0  0  0  0  0  0  0  0  0  0  0  0
  -25.7647   -0.3897   29.0360 C   0  0  0  0  0  0  0  0  0  0  0  0
  -25.5296   -1.5302   29.9014 C   0  0  0  0  0  0  0  0  0  0  0  0
  -26.6577   -2.2915   30.2035 C   0  0  0  0  0  0  0  0  0  0  0  0
  -27.8548   -1.9555   29.7630 C   0  0  0  0  0  0  0  0  0  0  0  0
  -24.5441    0.4126   28.7379 C   0  0  0  0  0  0  0  0  0  0  0  0
  -24.4731    1.2065   27.7114 C   0  0  0  0  0  0  0  0  0  0  0  0
  -25.5225    1.5146   26.8271 C   0  0  0  0  0  0  0  0  0  0  0  0
  -23.1407    1.8483   27.3980 C   0  0  0  0  0  0  0  0  0  0  0  0
  -22.2268    1.7115   28.2864 F   0  0  0  0  0  0  0  0  0  0  0  0
  -23.2705    3.2403   27.2445 F   0  0  0  0  0  0  0  0  0  0  0  0
  -22.7014    1.3837   26.2364 F   0  0  0  0  0  0  0  0  0  0  0  0
  -29.0167   -2.7944   30.1698 C   0  0  0  0  0  0  0  0  0  0  0  0
  -28.8524   -4.0999   30.4894 N   0  0  0  0  0  0  0  0  0  0  0  0
  -29.8737   -4.9983   30.3118 C   0  0  0  0  0  0  0  0  0  0  0  0
  -30.2435   -5.7677   31.3915 C   0  0  0  0  0  0  0  0  0  0  0  0
  -31.1848   -6.8600   31.2433 C   0  0  0  0  0  0  0  0  0  0  0  0
  -31.6855   -7.0869   29.9735 C   0  0  0  0  0  0  0  0  0  0  0  0
  -31.2749   -6.3241   28.8699 C   0  0  0  0  0  0  0  0  0  0  0  0
  -30.2409   -5.2045   29.0606 C   0  0  0  0  0  0  0  0  0  0  0  0
  -30.1467   -2.3286   30.1782 O   0  0  0  0  0  0  0  0  0  0  0  0
  -31.8141   -6.5822   27.3059 Cl  0  0  0  0  0  0  0  0  0  0  0  0
  -29.6772   -5.5146   32.7765 C   0  0  0  0  0  0  0  0  0  0  0  0
  -29.3661   -4.4810   33.0688 O   0  0  0  0  0  0  0  0  0  0  0  0
  -29.7713   -6.5496   33.6161 N   0  0  0  0  0  0  0  0  0  0  0  0
  -29.2730   -6.3886   34.9982 C   0  0  0  0  0  0  0  0  0  0  0  0
  -23.4319    0.1874   29.7278 C   0  0  0  0  0  0  0  0  0  0  0  0
  -22.1308    0.7538   29.2172 C   0  0  0  0  0  0  0  0  0  0  0  0
  -21.3520    1.2019   30.2212 F   0  0  0  0  0  0  0  0  0  0  0  0
  -21.4224   -0.2956   28.6116 F   0  0  0  0  0  0  0  0  0  0  0  0
  3  7  1  0
  7  8  2  3
  8  9  1  0
  8 10  1  0
 10 11  1  0
 10 12  1  0
 10 13  1  0
  6 14  1  0
 14 15  1  0
 14 22  2  0
 20 23  1  0
 17 24  1  0
 24 25  2  0
 24 26  1  0
 26 27  1  0
  7 28  1  0
 28 29  2  3
 29 30  1  0
 29 31  1  0
 15 16  1  0
  1  2  2  0
  2  3  1  0
  3  4  2  0
  4  5  1  0
  5  6  2  0
  6  1  1  0
 16 17  2  0
 17 18  1  0
 18 19  2  0
 19 20  1  0
 20 21  2  0
 21 16  1  0
M  END

$$$$
