No_4538-gen_results/8p0m/2024-11-27-11-27-31/
     RDKit          3D

 26 27  0  0  0  0  0  0  0  0999 V2000
  -28.0162   -0.8135   28.8779 C   0  0  0  0  0  0  0  0  0  0  0  0
  -27.0636   -0.1189   28.6079 C   0  0  0  0  0  0  0  0  0  0  0  0
  -25.7647   -0.3897   29.0360 C   0  0  0  0  0  0  0  0  0  0  0  0
  -25.5296   -1.5302   29.9014 C   0  0  0  0  0  0  0  0  0  0  0  0
  -26.6888   -2.2893   30.1810 C   0  0  0  0  0  0  0  0  0  0  0  0
  -27.8727   -1.9508   29.7373 C   0  0  0  0  0  0  0  0  0  0  0  0
  -28.9304   -2.7298   30.1154 O   0  0  0  0  0  0  0  0  0  0  0  0
  -24.5394    0.4211   28.7421 C   0  0  0  0  0  0  0  0  0  0  0  0
  -24.5259    1.2743   27.7266 C   0  0  0  0  0  0  0  0  0  0  0  0
  -23.3174    1.9856   27.4033 C   0  0  0  0  0  0  0  0  0  0  0  0
  -22.1311    1.7374   28.0503 C   0  0  0  0  0  0  0  0  0  0  0  0
  -23.2983    0.1369   29.3771 C   0  0  0  0  0  0  0  0  0  0  0  0
  -22.1005    0.8185   29.0410 C   0  0  0  0  0  0  0  0  0  0  0  0
  -28.7825   -3.9930   30.6421 C   0  0  0  0  0  0  0  0  0  0  0  0
  -29.8370   -4.2773   31.6061 C   0  0  0  0  0  0  0  0  0  0  0  0
  -30.3109   -3.3049   32.2166 C   0  0  0  0  0  0  0  0  0  0  0  0
  -29.3659   -5.3360   32.5052 O   0  0  0  0  0  0  0  0  0  0  0  0
  -31.5061   -3.5430   32.9788 C   0  0  0  0  0  0  0  0  0  0  0  0
  -31.7754   -4.5745   33.2275 O   0  0  0  0  0  0  0  0  0  0  0  0
  -32.1895   -2.4302   33.4628 N   0  0  0  0  0  0  0  0  0  0  0  0
  -31.8382   -1.0653   33.3031 C   0  0  0  0  0  0  0  0  0  0  0  0
  -30.8904   -0.6651   34.0500 C   0  0  0  0  0  0  0  0  0  0  0  0
  -30.1142    0.0825   34.1096 C   0  0  0  0  0  0  0  0  0  0  0  0
  -28.9931    0.4615   35.0365 C   0  0  0  0  0  0  0  0  0  0  0  0
  -28.8726   -0.4545   36.0669 C   0  0  0  0  0  0  0  0  0  0  0  0
  -29.7055   -1.5470   36.1351 C   0  0  0  0  0  0  0  0  0  0  0  0
  6  7  1  0
  3  8  1  0
  7 14  1  0
 14 15  1  0
 15 16  1  0
 15 17  1  0
 16 18  1  0
 18 19  2  0
 18 20  1  0
 20 21  1  0
 21 22  2  3
 22 23  1  0
 23 24  2  3
 24 25  1  0
 25 26  2  0
  1  2  2  0
  2  3  1  0
  3  4  2  0
  4  5  1  0
  5  6  2  0
  6  1  1  0
  8  9  2  0
  9 10  1  0
 10 11  2  0
 11 13  1  0
 13 12  2  0
 12  8  1  0
M  END

$$$$
