No_4008-gen_results/8p0m/2024-11-27-11-27-31/
     RDKit          3D

 35 38  0  0  0  0  0  0  0  0999 V2000
  -28.0162   -0.8135   28.8779 C   0  0  0  0  0  0  0  0  0  0  0  0
  -28.4690   -0.7850   29.8287 C   0  0  0  0  0  0  0  0  0  0  0  0
  -27.0871    0.2903   28.6377 C   0  0  0  0  0  0  0  0  0  0  0  0
  -26.8317    1.2487   29.5869 C   0  0  0  0  0  0  0  0  0  0  0  0
  -28.3914    0.0801   31.0065 C   0  0  0  0  0  0  0  0  0  0  0  0
  -27.4940    1.1521   30.7841 C   0  0  0  0  0  0  0  0  0  0  0  0
  -26.3172    0.3994   27.3653 C   0  0  0  0  0  0  0  0  0  0  0  0
  -25.0720    0.1569   27.4305 N   0  0  0  0  0  0  0  0  0  0  0  0
  -26.8005    1.0084   26.3780 O   0  0  0  0  0  0  0  0  0  0  0  0
  -24.1351    0.6387   27.0794 C   0  0  0  0  0  0  0  0  0  0  0  0
  -23.9936    1.5273   26.0538 C   0  0  0  0  0  0  0  0  0  0  0  0
  -22.7471    2.2238   25.7569 C   0  0  0  0  0  0  0  0  0  0  0  0
  -21.7335    2.0667   26.7017 C   0  0  0  0  0  0  0  0  0  0  0  0
  -21.8713    1.2438   27.8501 C   0  0  0  0  0  0  0  0  0  0  0  0
  -23.0288    0.6240   28.0792 C   0  0  0  0  0  0  0  0  0  0  0  0
  -23.0798   -0.1848   29.2495 C   0  0  0  0  0  0  0  0  0  0  0  0
  -22.1241   -0.8252   29.7496 C   0  0  0  0  0  0  0  0  0  0  0  0
  -22.4672   -1.5047   30.9549 N   0  0  0  0  0  0  0  0  0  0  0  0
  -23.8235   -1.2155   31.1814 C   0  0  0  0  0  0  0  0  0  0  0  0
  -24.2351   -0.4198   30.1066 C   0  0  0  0  0  0  0  0  0  0  0  0
  -29.4766   -2.0022   30.2154 C   0  0  0  0  0  0  0  0  0  0  0  0
  -29.9692   -2.0053   31.3389 O   0  0  0  0  0  0  0  0  0  0  0  0
  -29.5599   -2.9210   29.4448 O   0  0  0  0  0  0  0  0  0  0  0  0
  -27.2932    2.1639   31.8773 C   0  0  0  0  0  0  0  0  0  0  0  0
  -27.0208    3.2498   31.7845 O   0  0  0  0  0  0  0  0  0  0  0  0
  -27.4979    1.6020   33.1344 O   0  0  0  0  0  0  0  0  0  0  0  0
  -26.9750    4.0444   30.9918 C   0  0  0  0  0  0  0  0  0  0  0  0
  -28.0178    4.7370   30.5139 C   0  0  0  0  0  0  0  0  0  0  0  0
  -27.9858    5.3660   29.2602 C   0  0  0  0  0  0  0  0  0  0  0  0
  -25.7256    4.2836   30.2018 C   0  0  0  0  0  0  0  0  0  0  0  0
  -25.6250    4.9680   29.0154 C   0  0  0  0  0  0  0  0  0  0  0  0
  -26.7875    5.5825   28.5680 C   0  0  0  0  0  0  0  0  0  0  0  0
  -29.2878    4.5666   31.1705 C   0  0  0  0  0  0  0  0  0  0  0  0
  -30.3328    4.3634   30.6979 N   0  0  0  0  0  0  0  0  0  0  0  0
  -31.4217    3.8373   31.2159 C   0  0  0  0  0  0  0  0  0  0  0  0
  3  7  1  0
  7  8  1  0
  7  9  2  0
  8 10  1  0
 15 16  1  0
 16 17  2  0
 17 18  1  0
 18 19  2  0
 16 20  1  0
 19 20  1  0
  2 21  1  0
 21 22  2  0
 21 23  1  0
  6 24  1  0
 24 25  1  0
 24 26  2  0
 25 27  1  0
 28 33  1  0
 33 34  1  0
 34 35  1  0
  1  2  2  0
  2  5  1  0
  5  6  2  0
  6  4  1  0
  4  3  2  0
  3  1  1  0
 10 11  2  0
 11 12  1  0
 12 13  2  0
 13 14  1  0
 14 15  2  0
 15 10  1  0
 27 28  2  0
 28 29  1  0
 29 32  2  0
 32 31  1  0
 31 30  2  0
 30 27  1  0
M  END

$$$$
