No_4464-gen_results/8p0m/2024-11-27-11-27-31/
     RDKit          3D

 19 20  0  0  0  0  0  0  0  0999 V2000
  -28.0162   -0.8135   28.8779 C   0  0  0  0  0  0  0  0  0  0  0  0
  -27.0636   -0.1189   28.6079 C   0  0  0  0  0  0  0  0  0  0  0  0
  -27.0010    0.6913   27.4910 C   0  0  0  0  0  0  0  0  0  0  0  0
  -25.8548    1.4825   27.0830 C   0  0  0  0  0  0  0  0  0  0  0  0
  -24.6901    1.4526   27.8807 C   0  0  0  0  0  0  0  0  0  0  0  0
  -24.7379    0.6010   29.0416 C   0  0  0  0  0  0  0  0  0  0  0  0
  -25.8234   -0.1688   29.3887 C   0  0  0  0  0  0  0  0  0  0  0  0
  -28.7568   -0.5479   30.0191 N   0  0  0  0  0  0  0  0  0  0  0  0
  -29.7597   -1.3260   30.5171 C   0  0  0  0  0  0  0  0  0  0  0  0
  -30.2314   -2.2937   29.8869 C   0  0  0  0  0  0  0  0  0  0  0  0
  -30.8281   -3.2246   30.6673 C   0  0  0  0  0  0  0  0  0  0  0  0
  -31.2607   -4.5084   30.0813 C   0  0  0  0  0  0  0  0  0  0  0  0
  -31.1858   -4.6571   28.7400 C   0  0  0  0  0  0  0  0  0  0  0  0
  -30.8675   -3.6083   27.9734 C   0  0  0  0  0  0  0  0  0  0  0  0
  -30.3378   -2.4423   28.5822 C   0  0  0  0  0  0  0  0  0  0  0  0
  -29.8463   -1.1852   31.8010 O   0  0  0  0  0  0  0  0  0  0  0  0
  -23.5156    2.1892   27.5420 C   0  0  0  0  0  0  0  0  0  0  0  0
  -22.5123    2.1986   28.3573 N   0  0  0  0  0  0  0  0  0  0  0  0
  -23.2691    2.4774   26.2430 N   0  0  0  0  0  0  0  0  0  0  0  0
  1  2  1  0
  1  8  1  0
  8  9  1  0
  9 10  1  0
  9 16  2  0
  5 17  1  0
 17 18  2  0
 17 19  1  0
  2  3  2  0
  3  4  1  0
  4  5  2  0
  5  6  1  0
  6  7  2  0
  7  2  1  0
 10 11  2  0
 11 12  1  0
 12 13  2  0
 13 14  1  0
 14 15  2  0
 15 10  1  0
M  END

$$$$
