No_4894-gen_results/8p0m/2024-11-27-11-27-31/
     RDKit          3D

 22 24  0  0  0  0  0  0  0  0999 V2000
  -28.0162   -0.8135   28.8779 C   0  0  0  0  0  0  0  0  0  0  0  0
  -28.4690   -0.7850   29.8287 C   0  0  0  0  0  0  0  0  0  0  0  0
  -27.1356    0.2359   28.5352 C   0  0  0  0  0  0  0  0  0  0  0  0
  -26.8745    1.2825   29.3982 C   0  0  0  0  0  0  0  0  0  0  0  0
  -28.3613    0.1987   30.9244 C   0  0  0  0  0  0  0  0  0  0  0  0
  -27.5277    1.2234   30.6356 C   0  0  0  0  0  0  0  0  0  0  0  0
  -26.3987    0.2949   27.2279 C   0  0  0  0  0  0  0  0  0  0  0  0
  -25.0392    0.2356   27.3538 C   0  0  0  0  0  0  0  0  0  0  0  0
  -27.0287    0.3958   26.0087 C   0  0  0  0  0  0  0  0  0  0  0  0
  -28.3713    0.5360   25.8782 C   0  0  0  0  0  0  0  0  0  0  0  0
  -28.8860    0.5071   24.5687 C   0  0  0  0  0  0  0  0  0  0  0  0
  -30.2841    0.5712   24.3900 C   0  0  0  0  0  0  0  0  0  0  0  0
  -31.1106    0.6022   25.4906 C   0  0  0  0  0  0  0  0  0  0  0  0
  -30.6219    0.5694   26.7682 C   0  0  0  0  0  0  0  0  0  0  0  0
  -29.2916    0.5546   26.9892 C   0  0  0  0  0  0  0  0  0  0  0  0
  -26.1668    0.4589   24.8759 C   0  0  0  0  0  0  0  0  0  0  0  0
  -24.3281    1.1570   28.1539 C   0  0  0  0  0  0  0  0  0  0  0  0
  -23.2406    1.3452   28.2499 C   0  0  0  0  0  0  0  0  0  0  0  0
  -22.1987    1.0317   27.9594 C   0  0  0  0  0  0  0  0  0  0  0  0
  -21.1968    0.7926   28.4542 C   0  0  0  0  0  0  0  0  0  0  0  0
  -25.2650    1.8871   29.2421 C   0  0  0  0  0  0  0  0  0  0  0  0
  -20.7707   -0.6294   28.8210 C   0  0  0  0  0  0  0  0  0  0  0  0
  3  7  1  0
  7  8  1  0
  7  9  1  0
  9 10  1  0
  9 16  1  0
  8 17  1  0
 18 19  1  0
 19 20  2  3
  4 21  1  0
 17 21  1  0
 20 22  1  0
 18 17  1  0
  1  2  2  0
  2  5  1  0
  5  6  2  0
  6  4  1  0
  4  3  2  0
  3  1  1  0
 10 11  2  0
 11 12  1  0
 12 13  2  0
 13 14  1  0
 14 15  2  0
 15 10  1  0
M  END

$$$$
