No_4174-gen_results/8p0m/2024-11-27-11-27-31/
     RDKit          3D

 16 16  0  0  0  0  0  0  0  0999 V2000
  -28.1493   -0.8198   28.9079 Cl  0  0  0  0  0  0  0  0  0  0  0  0
  -26.9116   -0.0797   28.9452 C   0  0  0  0  0  0  0  0  0  0  0  0
  -26.0490   -0.0718   27.8591 C   0  0  0  0  0  0  0  0  0  0  0  0
  -24.7194    0.4034   27.9174 C   0  0  0  0  0  0  0  0  0  0  0  0
  -24.2099    0.9302   29.0839 C   0  0  0  0  0  0  0  0  0  0  0  0
  -25.0231    0.9078   30.1875 C   0  0  0  0  0  0  0  0  0  0  0  0
  -26.2531    0.3904   30.1401 C   0  0  0  0  0  0  0  0  0  0  0  0
  -22.8500    1.4479   29.0593 C   0  0  0  0  0  0  0  0  0  0  0  0
  -21.8477    1.2001   28.3123 N   0  0  0  0  0  0  0  0  0  0  0  0
  -22.4162    1.8643   30.1938 O   0  0  0  0  0  0  0  0  0  0  0  0
  -27.0837    0.3556   31.4285 C   0  0  0  0  0  0  0  0  0  0  0  0
  -28.3997    0.6208   31.4289 C   0  0  0  0  0  0  0  0  0  0  0  0
  -26.3468    0.1055   32.6455 C   0  0  0  0  0  0  0  0  0  0  0  0
  -25.4508   -0.4051   32.8747 C   0  0  0  0  0  0  0  0  0  0  0  0
  -25.0402   -0.5198   34.2481 N   0  0  0  0  0  0  0  0  0  0  0  0
  -29.0450    0.9698   32.6034 C   0  0  0  0  0  0  0  0  0  0  0  0
  1  2  1  0
  5  8  1  0
  8  9  1  0
  8 10  2  0
  7 11  1  0
 11 12  1  0
 11 13  1  0
 13 14  2  3
 14 15  1  0
 12 16  2  0
  2  3  2  0
  3  4  1  0
  4  5  2  0
  5  6  1  0
  6  7  2  0
  7  2  1  0
M  END

$$$$
