No_464-gen_results/8p0m/2024-11-27-11-27-31/
     RDKit          3D

 17 17  0  0  0  0  0  0  0  0999 V2000
  -28.0162   -0.8135   28.8779 C   0  0  0  0  0  0  0  0  0  0  0  0
  -28.4690   -0.7850   29.8287 C   0  0  0  0  0  0  0  0  0  0  0  0
  -27.1356    0.2359   28.5352 C   0  0  0  0  0  0  0  0  0  0  0  0
  -26.8745    1.2825   29.3982 C   0  0  0  0  0  0  0  0  0  0  0  0
  -28.3613    0.1987   30.9244 C   0  0  0  0  0  0  0  0  0  0  0  0
  -27.5277    1.2234   30.6356 C   0  0  0  0  0  0  0  0  0  0  0  0
  -26.3879    0.2914   27.2334 C   0  0  0  0  0  0  0  0  0  0  0  0
  -25.2456    0.6362   26.8998 Br  0  0  0  0  0  0  0  0  0  0  0  0
  -27.3614   -0.0828   26.1805 F   0  0  0  0  0  0  0  0  0  0  0  0
  -27.3040    2.3489   31.5984 C   0  0  0  0  0  0  0  0  0  0  0  0
  -27.6063    2.4284   32.6929 O   0  0  0  0  0  0  0  0  0  0  0  0
  -26.5009    3.3318   31.0332 O   0  0  0  0  0  0  0  0  0  0  0  0
  -29.4196   -1.9903   30.3538 C   0  0  0  0  0  0  0  0  0  0  0  0
  -30.5183   -2.0074   30.0658 O   0  0  0  0  0  0  0  0  0  0  0  0
  -28.9084   -2.7500   31.3331 O   0  0  0  0  0  0  0  0  0  0  0  0
  -25.8918    4.1625   31.8537 C   0  0  0  0  0  0  0  0  0  0  0  0
  -26.1565    4.4391   32.9443 C   0  0  0  0  0  0  0  0  0  0  0  0
  3  7  1  0
  7  8  1  0
  7  9  1  0
  6 10  1  0
 10 11  2  0
 10 12  1  0
  2 13  1  0
 13 14  2  0
 13 15  1  0
 12 16  1  0
 16 17  2  0
  1  2  2  0
  2  5  1  0
  5  6  2  0
  6  4  1  0
  4  3  2  0
  3  1  1  0
M  END

$$$$
