No_442-gen_results/8p0m/2024-11-27-11-27-31/
     RDKit          3D

 31 34  0  0  0  0  0  0  0  0999 V2000
  -28.0162   -0.8135   28.8779 C   0  0  0  0  0  0  0  0  0  0  0  0
  -27.0636   -0.1190   28.6079 C   0  0  0  0  0  0  0  0  0  0  0  0
  -25.7647   -0.3897   29.0360 C   0  0  0  0  0  0  0  0  0  0  0  0
  -25.5296   -1.5302   29.9014 C   0  0  0  0  0  0  0  0  0  0  0  0
  -26.6888   -2.2893   30.1810 C   0  0  0  0  0  0  0  0  0  0  0  0
  -27.8727   -1.9508   29.7373 C   0  0  0  0  0  0  0  0  0  0  0  0
  -24.5491    0.4100   28.7341 C   0  0  0  0  0  0  0  0  0  0  0  0
  -24.4789    1.1871   27.6843 C   0  0  0  0  0  0  0  0  0  0  0  0
  -23.2716    1.8973   27.3731 C   0  0  0  0  0  0  0  0  0  0  0  0
  -22.1063    1.7032   28.0412 C   0  0  0  0  0  0  0  0  0  0  0  0
  -23.3188    0.1792   29.4669 C   0  0  0  0  0  0  0  0  0  0  0  0
  -22.1165    0.8402   29.1011 C   0  0  0  0  0  0  0  0  0  0  0  0
  -29.0397   -2.7818   30.1613 C   0  0  0  0  0  0  0  0  0  0  0  0
  -29.3419   -2.7153   31.3923 N   0  0  0  0  0  0  0  0  0  0  0  0
  -29.8086   -3.7603   32.0334 C   0  0  0  0  0  0  0  0  0  0  0  0
  -29.2771   -1.5351   32.0882 C   0  0  0  0  0  0  0  0  0  0  0  0
  -30.1635   -1.0811   32.6430 C   0  0  0  0  0  0  0  0  0  0  0  0
  -30.8267   -2.0361   33.6576 C   0  0  0  0  0  0  0  0  0  0  0  0
  -30.1432   -3.7564   33.0114 C   0  0  0  0  0  0  0  0  0  0  0  0
  -29.5963   -5.1004   31.4622 C   0  0  0  0  0  0  0  0  0  0  0  0
  -29.9715   -5.4159   30.1607 C   0  0  0  0  0  0  0  0  0  0  0  0
  -29.1979   -6.1980   32.3079 C   0  0  0  0  0  0  0  0  0  0  0  0
  -29.5927   -7.3863   32.0519 O   0  0  0  0  0  0  0  0  0  0  0  0
  -30.9518   -6.3187   29.9407 N   0  0  0  0  0  0  0  0  0  0  0  0
  -31.3967   -6.5214   28.6899 C   0  0  0  0  0  0  0  0  0  0  0  0
  -31.1611   -5.4851   27.6992 C   0  0  0  0  0  0  0  0  0  0  0  0
  -30.3711   -4.4335   28.1221 C   0  0  0  0  0  0  0  0  0  0  0  0
  -29.7737   -4.3024   29.3222 C   0  0  0  0  0  0  0  0  0  0  0  0
  -28.6892   -4.2456   29.1424 O   0  0  0  0  0  0  0  0  0  0  0  0
  -30.2502   -1.9027   29.6942 O   0  0  0  0  0  0  0  0  0  0  0  0
  -27.8338   -4.9743   29.8105 C   0  0  0  0  0  0  0  0  0  0  0  0
  3  7  1  0
  6 13  1  0
 13 14  1  0
 14 15  1  0
 14 16  1  0
 17 18  1  0
 18 19  1  0
 15 20  1  0
 20 21  1  0
 20 22  1  0
 22 23  2  0
 28 29  1  0
 13 30  1  0
 29 31  1  0
 15 19  1  0
 17 16  1  0
  7  8  2  0
  8  9  1  0
  9 10  2  0
 10 12  1  0
 12 11  2  0
 11  7  1  0
  1  2  2  0
  2  3  1  0
  3  4  2  0
  4  5  1  0
  5  6  2  0
  6  1  1  0
 21 24  2  0
 24 25  1  0
 25 26  2  0
 26 27  1  0
 27 28  2  0
 28 21  1  0
M  END

$$$$
