No_4820-gen_results/8p0m/2024-11-27-11-27-31/
     RDKit          3D

 12 13  0  0  0  0  0  0  0  0999 V2000
  -28.0162   -0.8135   28.8779 C   0  0  0  0  0  0  0  0  0  0  0  0
  -28.4690   -0.7850   29.8287 C   0  0  0  0  0  0  0  0  0  0  0  0
  -28.1960    0.3478   28.0550 C   0  0  0  0  0  0  0  0  0  0  0  0
  -29.0191    1.3501   28.3782 C   0  0  0  0  0  0  0  0  0  0  0  0
  -29.6249    1.2683   29.6012 C   0  0  0  0  0  0  0  0  0  0  0  0
  -29.3791    0.1469   30.3923 C   0  0  0  0  0  0  0  0  0  0  0  0
  -27.3366    0.2439   26.8178 C   0  0  0  0  0  0  0  0  0  0  0  0
  -27.7156    0.6322   25.7202 C   0  0  0  0  0  0  0  0  0  0  0  0
  -26.8659    0.5139   24.5214 C   0  0  0  0  0  0  0  0  0  0  0  0
  -25.5523    0.0519   24.6983 C   0  0  0  0  0  0  0  0  0  0  0  0
  -25.0716   -0.1623   25.9984 C   0  0  0  0  0  0  0  0  0  0  0  0
  -25.9440   -0.1067   27.0280 C   0  0  0  0  0  0  0  0  0  0  0  0
  3  7  1  0
  1  2  2  0
  2  6  1  0
  6  5  2  0
  5  4  1  0
  4  3  2  0
  3  1  1  0
  7  8  2  0
  8  9  1  0
  9 10  2  0
 10 11  1  0
 11 12  2  0
 12  7  1  0
M  END

$$$$
