No_4046-gen_results/8p0m/2024-11-27-11-27-31/
     RDKit          3D

 24 27  0  0  0  0  0  0  0  0999 V2000
  -28.0162   -0.8135   28.8779 C   0  0  0  0  0  0  0  0  0  0  0  0
  -27.0636   -0.1190   28.6079 C   0  0  0  0  0  0  0  0  0  0  0  0
  -25.7923   -0.4302   29.0761 C   0  0  0  0  0  0  0  0  0  0  0  0
  -25.5756   -1.5654   29.9363 C   0  0  0  0  0  0  0  0  0  0  0  0
  -26.7354   -2.3004   30.2173 C   0  0  0  0  0  0  0  0  0  0  0  0
  -27.9184   -1.9537   29.7629 C   0  0  0  0  0  0  0  0  0  0  0  0
  -27.1057    1.1023   27.7593 C   0  0  0  0  0  0  0  0  0  0  0  0
  -26.7157    2.2350   27.9945 C   0  0  0  0  0  0  0  0  0  0  0  0
  -26.0688    2.4770   29.3567 C   0  0  0  0  0  0  0  0  0  0  0  0
  -26.2621    3.4491   30.0956 C   0  0  0  0  0  0  0  0  0  0  0  0
  -26.6040    4.7187   29.3954 C   0  0  0  0  0  0  0  0  0  0  0  0
  -27.0475    4.6411   28.1009 C   0  0  0  0  0  0  0  0  0  0  0  0
  -27.2102    3.4198   27.4436 C   0  0  0  0  0  0  0  0  0  0  0  0
  -27.5530    0.8062   26.3680 C   0  0  0  0  0  0  0  0  0  0  0  0
  -26.8248    0.4238   25.4376 N   0  0  0  0  0  0  0  0  0  0  0  0
  -28.8160    1.2725   25.9999 C   0  0  0  0  0  0  0  0  0  0  0  0
  -29.7887    1.7155   26.8231 C   0  0  0  0  0  0  0  0  0  0  0  0
  -31.0391    2.0584   26.4521 C   0  0  0  0  0  0  0  0  0  0  0  0
  -29.2357    1.0390   24.6917 C   0  0  0  0  0  0  0  0  0  0  0  0
  -31.3395    1.8472   25.1277 C   0  0  0  0  0  0  0  0  0  0  0  0
  -30.4534    1.3700   24.2084 C   0  0  0  0  0  0  0  0  0  0  0  0
  -25.3969    0.3297   25.6557 C   0  0  0  0  0  0  0  0  0  0  0  0
  -27.1683   -0.0516   24.2013 C   0  0  0  0  0  0  0  0  0  0  0  0
  -28.3444    0.3540   23.8059 C   0  0  0  0  0  0  0  0  0  0  0  0
  2  7  1  0
  7 14  1  0
 14 15  1  0
 14 16  1  0
 15 22  1  0
 15 23  1  0
 19 24  1  0
  7  8  1  0
 24 23  1  0
  1  2  2  0
  2  3  1  0
  3  4  2  0
  4  5  1  0
  5  6  2  0
  6  1  1  0
 16 17  2  0
 17 18  1  0
 18 20  2  0
 20 21  1  0
 21 19  2  0
 19 16  1  0
  8  9  2  0
  9 10  1  0
 10 11  2  0
 11 12  1  0
 12 13  2  0
 13  8  1  0
M  END

$$$$
