No_481-gen_results/8p0m/2024-11-27-11-27-31/
     RDKit          3D

 22 23  0  0  0  0  0  0  0  0999 V2000
  -28.0162   -0.8135   28.8779 C   0  0  0  0  0  0  0  0  0  0  0  0
  -27.0636   -0.1189   28.6079 C   0  0  0  0  0  0  0  0  0  0  0  0
  -26.9716    0.7139   27.5060 C   0  0  0  0  0  0  0  0  0  0  0  0
  -25.8206    1.4910   27.1160 C   0  0  0  0  0  0  0  0  0  0  0  0
  -24.6562    1.4242   27.9180 C   0  0  0  0  0  0  0  0  0  0  0  0
  -24.7114    0.5419   29.0507 C   0  0  0  0  0  0  0  0  0  0  0  0
  -25.8042   -0.2058   29.3881 C   0  0  0  0  0  0  0  0  0  0  0  0
  -28.6958   -0.4989   30.1325 C   0  0  0  0  0  0  0  0  0  0  0  0
  -29.8501   -1.3254   30.5771 C   0  0  0  0  0  0  0  0  0  0  0  0
  -30.2015   -2.3159   29.7712 C   0  0  0  0  0  0  0  0  0  0  0  0
  -31.3916   -2.8110   29.9604 F   0  0  0  0  0  0  0  0  0  0  0  0
  -23.5943    2.1007   27.6519 F   0  0  0  0  0  0  0  0  0  0  0  0
  -28.1052    0.8373   26.5747 C   0  0  0  0  0  0  0  0  0  0  0  0
  -28.0345    0.4584   25.2824 C   0  0  0  0  0  0  0  0  0  0  0  0
  -29.1317    0.4468   24.4130 C   0  0  0  0  0  0  0  0  0  0  0  0
  -30.3802    0.7251   24.8873 C   0  0  0  0  0  0  0  0  0  0  0  0
  -30.5149    1.1043   26.2595 C   0  0  0  0  0  0  0  0  0  0  0  0
  -29.4173    1.1003   27.1491 C   0  0  0  0  0  0  0  0  0  0  0  0
  -31.8538    1.3577   26.8120 C   0  0  0  0  0  0  0  0  0  0  0  0
  -32.1923    2.2845   27.4126 O   0  0  0  0  0  0  0  0  0  0  0  0
  -32.6119    0.2479   26.8579 O   0  0  0  0  0  0  0  0  0  0  0  0
  -29.6389   -2.6035   28.7962 F   0  0  0  0  0  0  0  0  0  0  0  0
  1  8  1  0
  8  9  2  3
  9 10  1  0
 10 11  1  0
  5 12  1  0
  3 13  1  0
 17 19  1  0
 19 20  1  0
 19 21  2  0
 10 22  1  0
  1  2  1  0
  2  3  2  0
  3  4  1  0
  4  5  2  0
  5  6  1  0
  6  7  2  0
  7  2  1  0
 13 14  2  0
 14 15  1  0
 15 16  2  0
 16 17  1  0
 17 18  2  0
 18 13  1  0
M  END

$$$$
