No_4037-gen_results/8p0m/2024-11-27-11-27-31/
     RDKit          3D

 21 22  0  0  0  0  0  0  0  0999 V2000
  -28.0162   -0.8135   28.8779 C   0  0  0  0  0  0  0  0  0  0  0  0
  -28.4690   -0.7850   29.8287 C   0  0  0  0  0  0  0  0  0  0  0  0
  -26.5455   -0.8762   28.8500 C   0  0  0  0  0  0  0  0  0  0  0  0
  -25.6825   -0.7773   27.6829 C   0  0  0  0  0  0  0  0  0  0  0  0
  -27.9181   -1.0034   31.1877 C   0  0  0  0  0  0  0  0  0  0  0  0
  -26.5308   -1.0794   31.2463 C   0  0  0  0  0  0  0  0  0  0  0  0
  -25.7798   -1.0462   30.0905 C   0  0  0  0  0  0  0  0  0  0  0  0
  -25.8976    0.2387   26.7449 C   0  0  0  0  0  0  0  0  0  0  0  0
  -25.6318    1.4984   27.0379 C   0  0  0  0  0  0  0  0  0  0  0  0
  -25.8797    2.5091   26.0660 C   0  0  0  0  0  0  0  0  0  0  0  0
  -25.5064    3.8494   26.4033 C   0  0  0  0  0  0  0  0  0  0  0  0
  -24.6944    4.0450   27.5682 C   0  0  0  0  0  0  0  0  0  0  0  0
  -24.8315    1.9473   28.1764 C   0  0  0  0  0  0  0  0  0  0  0  0
  -24.4610    3.2135   28.4337 C   0  0  0  0  0  0  0  0  0  0  0  0
  -26.4123   -0.1301   25.4870 C   0  0  0  0  0  0  0  0  0  0  0  0
  -27.5308   -0.3463   24.9850 N   0  0  0  0  0  0  0  0  0  0  0  0
  -27.8537   -0.5970   23.7726 C   0  0  0  0  0  0  0  0  0  0  0  0
  -25.5130    0.0844   24.5474 O   0  0  0  0  0  0  0  0  0  0  0  0
  -24.3854   -1.1959   30.1814 C   0  0  0  0  0  0  0  0  0  0  0  0
  -23.6555   -2.1278   29.6081 C   0  0  0  0  0  0  0  0  0  0  0  0
  -23.7099   -0.2578   31.1042 C   0  0  0  0  0  0  0  0  0  0  0  0
  3  4  1  0
  4  8  1  0
  8 15  1  0
 15 16  1  0
 16 17  1  0
 15 18  2  0
  7 19  1  0
 19 20  1  0
 19 21  1  0
  8  9  1  0
  1  2  2  0
  2  5  1  0
  5  6  2  0
  6  7  1  0
  7  3  2  0
  3  1  1  0
  9 10  2  0
 10 11  1  0
 11 12  2  0
 12 14  1  0
 14 13  2  0
 13  9  1  0
M  END

$$$$
