No_4440-gen_results/8p0m/2024-11-27-11-27-31/
     RDKit          3D

 19 19  0  0  0  0  0  0  0  0999 V2000
  -28.0162   -0.8135   28.8779 C   0  0  0  0  0  0  0  0  0  0  0  0
  -27.0636   -0.1189   28.6079 C   0  0  0  0  0  0  0  0  0  0  0  0
  -26.8756    1.1325   28.9134 C   0  0  0  0  0  0  0  0  0  0  0  0
  -27.9014    1.8066   29.6436 C   0  0  0  0  0  0  0  0  0  0  0  0
  -29.0458   -0.2316   29.7181 C   0  0  0  0  0  0  0  0  0  0  0  0
  -27.7521    3.2005   30.0171 C   0  0  0  0  0  0  0  0  0  0  0  0
  -28.9510    1.0411   30.0482 C   0  0  0  0  0  0  0  0  0  0  0  0
  -27.8719    3.6040   31.1149 N   0  0  0  0  0  0  0  0  0  0  0  0
  -27.3415    4.2840   28.7755 Cl  0  0  0  0  0  0  0  0  0  0  0  0
  -27.3626    4.0959   31.8837 C   0  0  0  0  0  0  0  0  0  0  0  0
  -27.8063    4.4162   33.2321 C   0  0  0  0  0  0  0  0  0  0  0  0
  -26.0798    4.5538   31.6646 F   0  0  0  0  0  0  0  0  0  0  0  0
  -30.1646   -1.1016   30.1814 C   0  0  0  0  0  0  0  0  0  0  0  0
  -29.9929   -2.1480   30.6335 O   0  0  0  0  0  0  0  0  0  0  0  0
  -31.3403   -0.6041   30.1705 O   0  0  0  0  0  0  0  0  0  0  0  0
  -25.8786   -0.6957   27.7674 C   0  0  0  0  0  0  0  0  0  0  0  0
  -24.6645   -1.0101   28.6312 C   0  0  0  0  0  0  0  0  0  0  0  0
  -24.5229   -2.2596   29.1227 C   0  0  0  0  0  0  0  0  0  0  0  0
  -23.2911   -2.5532   29.7811 C   0  0  0  0  0  0  0  0  0  0  0  0
  4  6  1  0
  6  8  1  0
  6  9  1  0
  8 10  1  0
 10 11  2  0
 10 12  1  0
  5 13  1  0
 13 14  2  0
 13 15  1  0
  2 16  1  0
 16 17  1  0
 17 18  2  3
 18 19  1  0
  1  2  2  0
  2  3  1  0
  3  4  2  0
  4  7  1  0
  7  5  2  0
  5  1  1  0
M  END

$$$$
