No_402-gen_results/8p0m/2024-11-27-11-27-31/
     RDKit          3D

 16 17  0  0  0  0  0  0  0  0999 V2000
  -28.0162   -0.8135   28.8779 C   0  0  0  0  0  0  0  0  0  0  0  0
  -28.4690   -0.7850   29.8287 C   0  0  0  0  0  0  0  0  0  0  0  0
  -27.1356    0.2359   28.5352 C   0  0  0  0  0  0  0  0  0  0  0  0
  -26.8745    1.2825   29.3982 C   0  0  0  0  0  0  0  0  0  0  0  0
  -27.5070    1.2380   30.6295 C   0  0  0  0  0  0  0  0  0  0  0  0
  -28.3269    0.1637   30.9240 C   0  0  0  0  0  0  0  0  0  0  0  0
  -26.4110    0.3070   27.2192 C   0  0  0  0  0  0  0  0  0  0  0  0
  -27.1502    0.4353   25.9667 Cl  0  0  0  0  0  0  0  0  0  0  0  0
  -24.9573    0.1449   27.2557 C   0  0  0  0  0  0  0  0  0  0  0  0
  -24.3107   -0.5095   28.2640 C   0  0  0  0  0  0  0  0  0  0  0  0
  -22.9459   -0.1586   28.5977 C   0  0  0  0  0  0  0  0  0  0  0  0
  -22.3367    0.8660   27.8365 C   0  0  0  0  0  0  0  0  0  0  0  0
  -23.0880    1.6288   26.9145 C   0  0  0  0  0  0  0  0  0  0  0  0
  -24.3936    1.3752   26.7333 C   0  0  0  0  0  0  0  0  0  0  0  0
  -20.7222    1.2753   28.1586 Cl  0  0  0  0  0  0  0  0  0  0  0  0
  -25.8664    2.6010   29.1118 Cl  0  0  0  0  0  0  0  0  0  0  0  0
  3  7  1  0
  7  8  1  0
  7  9  1  0
 12 15  1  0
  4 16  1  0
  1  2  2  0
  2  6  1  0
  6  5  2  0
  5  4  1  0
  4  3  2  0
  3  1  1  0
  9 10  2  0
 10 11  1  0
 11 12  2  0
 12 13  1  0
 13 14  2  0
 14  9  1  0
M  END

$$$$
