No_451-gen_results/8p0m/2024-11-27-11-27-31/
     RDKit          3D

 20 21  0  0  0  0  0  0  0  0999 V2000
  -28.0162   -0.8135   28.8779 C   0  0  0  0  0  0  0  0  0  0  0  0
  -27.0636   -0.1189   28.6079 C   0  0  0  0  0  0  0  0  0  0  0  0
  -26.9716    0.7139   27.5060 C   0  0  0  0  0  0  0  0  0  0  0  0
  -28.1053    0.7744   26.6421 C   0  0  0  0  0  0  0  0  0  0  0  0
  -29.2041    0.1179   27.0477 C   0  0  0  0  0  0  0  0  0  0  0  0
  -29.2127   -0.6088   28.1281 C   0  0  0  0  0  0  0  0  0  0  0  0
  -30.5638    0.2475   26.0224 Cl  0  0  0  0  0  0  0  0  0  0  0  0
  -25.6995    1.4455   27.1228 C   0  0  0  0  0  0  0  0  0  0  0  0
  -25.2204    2.5000   27.9025 C   0  0  0  0  0  0  0  0  0  0  0  0
  -25.5472    2.7990   28.9643 C   0  0  0  0  0  0  0  0  0  0  0  0
  -26.1180    3.5590   29.5899 C   0  0  0  0  0  0  0  0  0  0  0  0
  -26.8815    4.6758   28.9280 C   0  0  0  0  0  0  0  0  0  0  0  0
  -27.7147    5.5139   29.6077 C   0  0  0  0  0  0  0  0  0  0  0  0
  -25.0036    0.9486   25.9707 C   0  0  0  0  0  0  0  0  0  0  0  0
  -24.6159    1.9158   29.9607 C   0  0  0  0  0  0  0  0  0  0  0  0
  -24.7783    2.0354   31.2222 O   0  0  0  0  0  0  0  0  0  0  0  0
  -23.7419    1.2265   29.4608 F   0  0  0  0  0  0  0  0  0  0  0  0
  -27.9115    5.3124   30.9798 C   0  0  0  0  0  0  0  0  0  0  0  0
  -27.2591    4.3469   31.6716 C   0  0  0  0  0  0  0  0  0  0  0  0
  -26.4334    3.4900   31.0291 C   0  0  0  0  0  0  0  0  0  0  0  0
  5  7  1  0
  3  8  1  0
  8  9  1  0
  9 10  2  3
 10 11  1  0
  8 14  1  0
 10 15  1  0
 15 16  2  0
 15 17  1  0
  1  2  2  0
  2  3  1  0
  3  4  2  0
  4  5  1  0
  5  6  2  0
  6  1  1  0
 11 12  2  0
 12 13  1  0
 13 18  2  0
 18 19  1  0
 19 20  2  0
 20 11  1  0
M  END

$$$$
