No_4351-gen_results/8p0m/2024-11-27-11-27-31/
     RDKit          3D

 14 15  0  0  0  0  0  0  0  0999 V2000
  -28.0162   -0.8135   28.8779 C   0  0  0  0  0  0  0  0  0  0  0  0
  -28.4690   -0.7850   29.8287 C   0  0  0  0  0  0  0  0  0  0  0  0
  -27.0871    0.2903   28.6377 C   0  0  0  0  0  0  0  0  0  0  0  0
  -26.0238    0.3644   29.2526 C   0  0  0  0  0  0  0  0  0  0  0  0
  -24.9536    1.2658   28.9526 C   0  0  0  0  0  0  0  0  0  0  0  0
  -27.5327   -0.7046   31.0831 C   0  0  0  0  0  0  0  0  0  0  0  0
  -26.3981    0.1684   30.7584 C   0  0  0  0  0  0  0  0  0  0  0  0
  -24.9806    2.2684   28.3773 C   0  0  0  0  0  0  0  0  0  0  0  0
  -23.7909    2.8076   27.8201 N   0  0  0  0  0  0  0  0  0  0  0  0
  -23.5437    0.7263   29.2698 C   0  0  0  0  0  0  0  0  0  0  0  0
  -23.4346   -0.5735   30.0055 C   0  0  0  0  0  0  0  0  0  0  0  0
  -22.4130    1.3204   28.7918 C   0  0  0  0  0  0  0  0  0  0  0  0
  -22.5433    2.4551   28.0761 C   0  0  0  0  0  0  0  0  0  0  0  0
  -29.5914   -1.5499   30.2368 O   0  0  0  0  0  0  0  0  0  0  0  0
  1  2  1  0
  1  3  1  0
  3  4  1  0
  2  6  1  0
  4  7  1  0
  6  7  1  0
 10 11  1  0
  2 14  1  0
  4  5  1  0
  5  8  2  0
  8  9  1  0
  9 13  2  0
 13 12  1  0
 12 10  2  0
 10  5  1  0
M  END

$$$$
