No_4418-gen_results/8p0m/2024-11-27-11-27-31/
     RDKit          3D

 14 15  0  0  0  0  0  0  0  0999 V2000
  -28.0162   -0.8135   28.8779 C   0  0  0  0  0  0  0  0  0  0  0  0
  -27.0636   -0.1189   28.6079 C   0  0  0  0  0  0  0  0  0  0  0  0
  -27.0010    0.6913   27.4910 C   0  0  0  0  0  0  0  0  0  0  0  0
  -25.8548    1.4825   27.0830 C   0  0  0  0  0  0  0  0  0  0  0  0
  -24.6901    1.4526   27.8807 C   0  0  0  0  0  0  0  0  0  0  0  0
  -24.7379    0.6010   29.0416 C   0  0  0  0  0  0  0  0  0  0  0  0
  -25.8234   -0.1688   29.3887 C   0  0  0  0  0  0  0  0  0  0  0  0
  -29.2075   -0.1514   29.0660 N   0  0  0  0  0  0  0  0  0  0  0  0
  -29.7474    0.5548   28.4314 C   0  0  0  0  0  0  0  0  0  0  0  0
  -29.3636    1.2036   27.2584 C   0  0  0  0  0  0  0  0  0  0  0  0
  -28.2969    1.0295   26.5881 C   0  0  0  0  0  0  0  0  0  0  0  0
  -23.4864    2.1471   27.5478 C   0  0  0  0  0  0  0  0  0  0  0  0
  -22.5326    2.1682   28.4589 N   0  0  0  0  0  0  0  0  0  0  0  0
  -23.2357    2.5497   26.3518 O   0  0  0  0  0  0  0  0  0  0  0  0
  1  2  1  0
  1  8  1  0
  8  9  2  0
  9 10  1  0
  3 11  1  0
 10 11  2  0
  5 12  1  0
 12 13  1  0
 12 14  2  0
  2  3  2  0
  3  4  1  0
  4  5  2  0
  5  6  1  0
  6  7  2  0
  7  2  1  0
M  END

$$$$
