No_4778-gen_results/8p0m/2024-11-27-11-27-31/
     RDKit          3D

 28 31  0  0  0  0  0  0  0  0999 V2000
  -28.0162   -0.8135   28.8779 C   0  0  0  0  0  0  0  0  0  0  0  0
  -27.0636   -0.1189   28.6079 C   0  0  0  0  0  0  0  0  0  0  0  0
  -25.7923   -0.4302   29.0761 C   0  0  0  0  0  0  0  0  0  0  0  0
  -25.5756   -1.5654   29.9363 C   0  0  0  0  0  0  0  0  0  0  0  0
  -26.7354   -2.3004   30.2173 C   0  0  0  0  0  0  0  0  0  0  0  0
  -27.9184   -1.9537   29.7629 C   0  0  0  0  0  0  0  0  0  0  0  0
  -29.2678   -2.8890   30.2152 Cl  0  0  0  0  0  0  0  0  0  0  0  0
  -27.1068    1.1096   27.7591 C   0  0  0  0  0  0  0  0  0  0  0  0
  -26.4599    1.2735   26.8247 O   0  0  0  0  0  0  0  0  0  0  0  0
  -28.3640    1.7642   27.8273 N   0  0  0  0  0  0  0  0  0  0  0  0
  -28.6133    2.8429   26.9371 C   0  0  0  0  0  0  0  0  0  0  0  0
  -29.1659    1.6566   28.9438 C   0  0  0  0  0  0  0  0  0  0  0  0
  -30.4785    1.3290   28.7000 C   0  0  0  0  0  0  0  0  0  0  0  0
  -31.3482    2.3121   29.0241 C   0  0  0  0  0  0  0  0  0  0  0  0
  -31.1659    2.9795   30.2335 C   0  0  0  0  0  0  0  0  0  0  0  0
  -29.8048    3.1418   30.6551 C   0  0  0  0  0  0  0  0  0  0  0  0
  -29.0075    2.9549   29.8351 C   0  0  0  0  0  0  0  0  0  0  0  0
  -29.6027    3.6964   32.0295 C   0  0  0  0  0  0  0  0  0  0  0  0
  -28.4056    3.9120   32.3400 C   0  0  0  0  0  0  0  0  0  0  0  0
  -27.9398    4.2180   33.6406 C   0  0  0  0  0  0  0  0  0  0  0  0
  -26.5147    4.4213   33.9139 C   0  0  0  0  0  0  0  0  0  0  0  0
  -25.5822    4.2644   32.8362 C   0  0  0  0  0  0  0  0  0  0  0  0
  -26.0468    3.8861   31.5905 C   0  0  0  0  0  0  0  0  0  0  0  0
  -27.3648    3.7268   31.3763 C   0  0  0  0  0  0  0  0  0  0  0  0
  -27.4320    2.9822   30.4521 C   0  0  0  0  0  0  0  0  0  0  0  0
  -24.9987    3.6945   30.5760 C   0  0  0  0  0  0  0  0  0  0  0  0
  -24.0493    3.0067   30.7406 O   0  0  0  0  0  0  0  0  0  0  0  0
  -25.2229    4.1825   29.3743 O   0  0  0  0  0  0  0  0  0  0  0  0
  6  7  1  0
  2  8  1  0
  8  9  2  0
  8 10  1  0
 10 11  1  0
 10 12  1  0
 23 26  1  0
 26 27  2  0
 26 28  1  0
 12 13  2  0
 13 14  1  0
 14 15  2  0
 15 16  1  0
 17 12  1  0
  1  2  2  0
  2  3  1  0
  3  4  2  0
  4  5  1  0
  5  6  2  0
  6  1  1  0
 16 17  2  0
 17 25  1  0
 25 24  2  0
 19 18  2  0
 18 16  1  0
 19 20  1  0
 20 21  2  0
 21 22  1  0
 22 23  2  0
 23 24  1  0
 24 19  1  0
M  END

$$$$
