No_4352-gen_results/8p0m/2024-11-27-11-27-31/
     RDKit          3D

 16 17  0  0  0  0  0  0  0  0999 V2000
  -28.0162   -0.8135   28.8779 C   0  0  0  0  0  0  0  0  0  0  0  0
  -28.4690   -0.7850   29.8287 C   0  0  0  0  0  0  0  0  0  0  0  0
  -26.5042   -0.7777   28.8766 C   0  0  0  0  0  0  0  0  0  0  0  0
  -25.8103   -0.8531   30.1028 C   0  0  0  0  0  0  0  0  0  0  0  0
  -27.9906   -0.8916   31.2257 C   0  0  0  0  0  0  0  0  0  0  0  0
  -26.6042   -0.8676   31.2652 C   0  0  0  0  0  0  0  0  0  0  0  0
  -30.0739   -0.8360   29.8615 C   0  0  0  0  0  0  0  0  0  0  0  0
  -30.6891   -1.6554   30.2229 O   0  0  0  0  0  0  0  0  0  0  0  0
  -30.5868    0.0940   28.8678 N   0  0  0  0  0  0  0  0  0  0  0  0
  -31.9585    0.0495   28.5916 C   0  0  0  0  0  0  0  0  0  0  0  0
  -32.3543    1.1414   28.2285 C   0  0  0  0  0  0  0  0  0  0  0  0
  -33.7611    1.4086   27.9602 C   0  0  0  0  0  0  0  0  0  0  0  0
  -34.6002    0.2599   28.1083 C   0  0  0  0  0  0  0  0  0  0  0  0
  -34.0679   -0.9468   28.4761 C   0  0  0  0  0  0  0  0  0  0  0  0
  -32.7364   -1.0602   28.7758 C   0  0  0  0  0  0  0  0  0  0  0  0
  -25.7577   -0.7712   27.7797 F   0  0  0  0  0  0  0  0  0  0  0  0
  2  7  1  0
  7  8  2  0
  7  9  1  0
  9 10  1  0
  3 16  1  0
  1  2  2  0
  2  5  1  0
  5  6  2  0
  6  4  1  0
  4  3  2  0
  3  1  1  0
 10 11  2  0
 11 12  1  0
 12 13  2  0
 13 14  1  0
 14 15  2  0
 15 10  1  0
M  END

$$$$
