No_4053-gen_results/8p0m/2024-11-27-11-27-31/
     RDKit          3D

 30 32  0  0  0  0  0  0  0  0999 V2000
  -28.0162   -0.8135   28.8779 C   0  0  0  0  0  0  0  0  0  0  0  0
  -27.0636   -0.1190   28.6079 C   0  0  0  0  0  0  0  0  0  0  0  0
  -27.0010    0.6913   27.4910 C   0  0  0  0  0  0  0  0  0  0  0  0
  -25.8548    1.4825   27.0830 C   0  0  0  0  0  0  0  0  0  0  0  0
  -24.9008    1.3893   27.5922 C   0  0  0  0  0  0  0  0  0  0  0  0
  -24.6783    0.5764   28.8299 C   0  0  0  0  0  0  0  0  0  0  0  0
  -25.7704   -0.2051   29.2800 C   0  0  0  0  0  0  0  0  0  0  0  0
  -27.9472   -1.4840   30.2151 C   0  0  0  0  0  0  0  0  0  0  0  0
  -26.7355   -1.6728   30.9002 C   0  0  0  0  0  0  0  0  0  0  0  0
  -25.6223   -0.9533   30.4683 C   0  0  0  0  0  0  0  0  0  0  0  0
  -23.5967    2.1938   27.2381 C   0  0  0  0  0  0  0  0  0  0  0  0
  -23.5301    2.7478   26.0953 O   0  0  0  0  0  0  0  0  0  0  0  0
  -22.4765    2.1380   27.9895 O   0  0  0  0  0  0  0  0  0  0  0  0
  -29.1203   -2.3386   30.6831 C   0  0  0  0  0  0  0  0  0  0  0  0
  -29.0240   -3.5406   30.8041 O   0  0  0  0  0  0  0  0  0  0  0  0
  -30.2446   -1.7566   30.8476 O   0  0  0  0  0  0  0  0  0  0  0  0
  -28.2753    0.8379   26.6665 C   0  0  0  0  0  0  0  0  0  0  0  0
  -28.4109    0.5349   25.5469 O   0  0  0  0  0  0  0  0  0  0  0  0
  -29.3380    1.2795   27.3356 O   0  0  0  0  0  0  0  0  0  0  0  0
  -24.4673   -1.0576   31.1356 N   0  0  0  0  0  0  0  0  0  0  0  0
  -24.2714   -0.4250   32.3743 C   0  0  0  0  0  0  0  0  0  0  0  0
  -23.3786   -1.6967   30.5284 C   0  0  0  0  0  0  0  0  0  0  0  0
  -30.5856    1.2090   26.7847 C   0  0  0  0  0  0  0  0  0  0  0  0
  -31.7009    1.3783   27.6112 C   0  0  0  0  0  0  0  0  0  0  0  0
  -31.5516    2.0524   28.7244 C   0  0  0  0  0  0  0  0  0  0  0  0
  -31.7522    1.8856   29.8417 C   0  0  0  0  0  0  0  0  0  0  0  0
  -31.5848    2.3833   30.9657 C   0  0  0  0  0  0  0  0  0  0  0  0
  -30.9441    3.6893   30.9554 C   0  0  0  0  0  0  0  0  0  0  0  0
  -30.5892    4.1594   29.6851 C   0  0  0  0  0  0  0  0  0  0  0  0
  -30.8099    3.3553   28.5637 C   0  0  0  0  0  0  0  0  0  0  0  0
  5 11  1  0
 11 12  2  0
 11 13  1  0
  8 14  1  0
 14 15  2  0
 14 16  1  0
  3 17  1  0
 17 18  2  0
 17 19  1  0
 10 20  1  0
 20 21  1  0
 20 22  1  0
 19 23  1  0
 23 24  1  0
 24 25  1  0
  2  3  1  0
  3  4  2  0
  4  5  1  0
  5  6  2  0
  6  7  1  0
 25 26  2  0
 26 27  1  0
 27 28  2  0
 28 29  1  0
 29 30  2  0
 30 25  1  0
  1  2  2  0
  2  7  1  0
  7 10  2  0
 10  9  1  0
  9  8  2  0
  8  1  1  0
M  END

$$$$
