No_4961-gen_results/8p0m/2024-11-27-11-27-31/
     RDKit          3D

 15 16  0  0  0  0  0  0  0  0999 V2000
  -28.0162   -0.8135   28.8779 C   0  0  0  0  0  0  0  0  0  0  0  0
  -28.4690   -0.7850   29.8287 C   0  0  0  0  0  0  0  0  0  0  0  0
  -27.0871    0.2903   28.6377 C   0  0  0  0  0  0  0  0  0  0  0  0
  -26.8317    1.2487   29.5869 C   0  0  0  0  0  0  0  0  0  0  0  0
  -28.3914    0.0801   31.0065 C   0  0  0  0  0  0  0  0  0  0  0  0
  -27.4940    1.1521   30.7841 C   0  0  0  0  0  0  0  0  0  0  0  0
  -26.3109    0.3918   27.3640 C   0  0  0  0  0  0  0  0  0  0  0  0
  -24.9686    0.2477   27.4806 C   0  0  0  0  0  0  0  0  0  0  0  0
  -26.9237    0.5760   26.1378 C   0  0  0  0  0  0  0  0  0  0  0  0
  -26.2090    0.4232   24.9761 C   0  0  0  0  0  0  0  0  0  0  0  0
  -24.2789    0.0342   28.7672 C   0  0  0  0  0  0  0  0  0  0  0  0
  -24.7621    0.3433   25.0661 C   0  0  0  0  0  0  0  0  0  0  0  0
  -24.2006    0.3322   26.2739 C   0  0  0  0  0  0  0  0  0  0  0  0
  -23.1006    0.8699   28.9178 C   0  0  0  0  0  0  0  0  0  0  0  0
  -23.8557   -1.4280   28.9714 C   0  0  0  0  0  0  0  0  0  0  0  0
  3  7  1  0
  8 11  1  0
 11 14  1  0
 11 15  1  0
  1  2  2  0
  2  5  1  0
  5  6  2  0
  6  4  1  0
  4  3  2  0
  3  1  1  0
  7  8  2  0
  8 13  1  0
 13 12  2  0
 12 10  1  0
 10  9  2  0
  9  7  1  0
M  END

$$$$
