No_4590-gen_results/8p0m/2024-11-27-11-27-31/
     RDKit          3D

 26 28  0  0  0  0  0  0  0  0999 V2000
  -28.0162   -0.8135   28.8779 C   0  0  0  0  0  0  0  0  0  0  0  0
  -27.0636   -0.1190   28.6079 C   0  0  0  0  0  0  0  0  0  0  0  0
  -26.9716    0.7139   27.5060 C   0  0  0  0  0  0  0  0  0  0  0  0
  -25.8205    1.4909   27.1160 C   0  0  0  0  0  0  0  0  0  0  0  0
  -25.7505    2.3193   26.0233 C   0  0  0  0  0  0  0  0  0  0  0  0
  -29.2657   -0.4722   28.3268 C   0  0  0  0  0  0  0  0  0  0  0  0
  -29.3335    0.3894   27.2912 C   0  0  0  0  0  0  0  0  0  0  0  0
  -28.1592    1.0454   26.8623 C   0  0  0  0  0  0  0  0  0  0  0  0
  -24.5403    1.2212   27.8277 C   0  0  0  0  0  0  0  0  0  0  0  0
  -23.3584    1.8699   27.3941 C   0  0  0  0  0  0  0  0  0  0  0  0
  -23.4019    2.7304   26.2954 C   0  0  0  0  0  0  0  0  0  0  0  0
  -24.5888    3.0504   25.6608 C   0  0  0  0  0  0  0  0  0  0  0  0
  -22.0881    1.6700   28.0596 C   0  0  0  0  0  0  0  0  0  0  0  0
  -21.1200    2.0724   27.9184 N   0  0  0  0  0  0  0  0  0  0  0  0
  -22.2305    0.7342   29.1725 N   0  0  0  0  0  0  0  0  0  0  0  0
  -30.8810    0.6404   26.6452 Cl  0  0  0  0  0  0  0  0  0  0  0  0
  -22.0720   -0.4678   29.4707 C   0  0  0  0  0  0  0  0  0  0  0  0
  -23.1342   -1.3510   29.6537 C   0  0  0  0  0  0  0  0  0  0  0  0
  -23.8642   -1.4670   30.7308 N   0  0  0  0  0  0  0  0  0  0  0  0
  -23.5964   -0.5900   31.7483 C   0  0  0  0  0  0  0  0  0  0  0  0
  -24.8901   -0.0841   32.3666 C   0  0  0  0  0  0  0  0  0  0  0  0
  -25.2703    1.2476   32.1270 C   0  0  0  0  0  0  0  0  0  0  0  0
  -26.4483    1.7805   32.6881 C   0  0  0  0  0  0  0  0  0  0  0  0
  -27.2046    0.9795   33.5184 C   0  0  0  0  0  0  0  0  0  0  0  0
  -26.8625   -0.3060   33.7434 C   0  0  0  0  0  0  0  0  0  0  0  0
  -25.7008   -0.8256   33.2081 C   0  0  0  0  0  0  0  0  0  0  0  0
  3  4  1  0
 10 13  1  0
 13 14  2  0
 13 15  1  0
  7 16  1  0
 15 17  1  0
 17 18  1  0
 18 19  2  3
 19 20  1  0
 20 21  1  0
  4  5  2  0
  5 12  1  0
 12 11  2  0
 11 10  1  0
 10  9  2  0
  9  4  1  0
  1  2  2  0
  2  3  1  0
  3  8  2  0
  8  7  1  0
  7  6  2  0
  6  1  1  0
 21 22  2  0
 22 23  1  0
 23 24  2  0
 24 25  1  0
 25 26  2  0
 26 21  1  0
M  END

$$$$
