No_4526-gen_results/8p0m/2024-11-27-11-27-31/
     RDKit          3D

 17 18  0  0  0  0  0  0  0  0999 V2000
  -28.0162   -0.8135   28.8779 C   0  0  0  0  0  0  0  0  0  0  0  0
  -27.0636   -0.1189   28.6079 C   0  0  0  0  0  0  0  0  0  0  0  0
  -26.9287    1.1713   29.0083 C   0  0  0  0  0  0  0  0  0  0  0  0
  -27.9560    1.7411   29.7840 C   0  0  0  0  0  0  0  0  0  0  0  0
  -29.0569   -0.3271   29.7466 C   0  0  0  0  0  0  0  0  0  0  0  0
  -28.9828    0.9722   30.1516 C   0  0  0  0  0  0  0  0  0  0  0  0
  -25.7352   -0.7297   27.6631 Cl  0  0  0  0  0  0  0  0  0  0  0  0
  -30.0810    1.5109   31.0108 C   0  0  0  0  0  0  0  0  0  0  0  0
  -29.7604    2.4457   31.8403 C   0  0  0  0  0  0  0  0  0  0  0  0
  -28.6097    3.3383   31.4436 C   0  0  0  0  0  0  0  0  0  0  0  0
  -27.6102    2.9241   30.6053 C   0  0  0  0  0  0  0  0  0  0  0  0
  -26.4333    3.7175   30.3430 C   0  0  0  0  0  0  0  0  0  0  0  0
  -25.3342    3.6120   30.8108 C   0  0  0  0  0  0  0  0  0  0  0  0
  -26.5748    4.6452   29.2187 C   0  0  0  0  0  0  0  0  0  0  0  0
  -25.4622    5.2301   28.6074 C   0  0  0  0  0  0  0  0  0  0  0  0
  -25.0772    2.6051   31.9561 C   0  0  0  0  0  0  0  0  0  0  0  0
  -25.1768    5.1247   27.4542 C   0  0  0  0  0  0  0  0  0  0  0  0
  2  7  1  0
 11 12  1  0
 12 13  1  0
 12 14  1  0
 14 15  2  3
 13 16  1  0
 15 17  1  0
  6  8  1  0
  8  9  2  0
  9 10  1  0
 10 11  2  0
 11  4  1  0
  1  2  2  0
  2  3  1  0
  3  4  2  0
  4  6  1  0
  6  5  2  0
  5  1  1  0
M  END

$$$$
