No_4172-gen_results/8p0m/2024-11-27-11-27-31/
     RDKit          3D

 25 27  0  0  0  0  0  0  0  0999 V2000
  -28.0162   -0.8135   28.8779 C   0  0  0  0  0  0  0  0  0  0  0  0
  -27.0636   -0.1189   28.6079 C   0  0  0  0  0  0  0  0  0  0  0  0
  -25.7923   -0.4302   29.0761 C   0  0  0  0  0  0  0  0  0  0  0  0
  -25.5756   -1.5654   29.9363 C   0  0  0  0  0  0  0  0  0  0  0  0
  -26.7354   -2.3004   30.2173 C   0  0  0  0  0  0  0  0  0  0  0  0
  -27.9184   -1.9537   29.7629 C   0  0  0  0  0  0  0  0  0  0  0  0
  -29.0001   -2.7012   30.1151 O   0  0  0  0  0  0  0  0  0  0  0  0
  -24.6795    0.2962   28.8383 F   0  0  0  0  0  0  0  0  0  0  0  0
  -29.3688   -2.8298   31.4447 C   0  0  0  0  0  0  0  0  0  0  0  0
  -29.7517   -4.1390   31.7396 C   0  0  0  0  0  0  0  0  0  0  0  0
  -30.8652   -4.2811   31.5961 C   0  0  0  0  0  0  0  0  0  0  0  0
  -31.7500   -3.4035   31.1106 C   0  0  0  0  0  0  0  0  0  0  0  0
  -30.7431   -2.1367   31.5652 C   0  0  0  0  0  0  0  0  0  0  0  0
  -30.9473   -1.7071   32.9024 O   0  0  0  0  0  0  0  0  0  0  0  0
  -32.9672   -3.1215   31.7080 O   0  0  0  0  0  0  0  0  0  0  0  0
  -31.3198   -5.6083   30.8388 O   0  0  0  0  0  0  0  0  0  0  0  0
  -28.8002   -5.0556   30.9727 O   0  0  0  0  0  0  0  0  0  0  0  0
  -31.0763   -0.3807   33.1166 C   0  0  0  0  0  0  0  0  0  0  0  0
  -30.5719   -0.1139   34.3222 C   0  0  0  0  0  0  0  0  0  0  0  0
  -30.5020    1.3016   34.7149 C   0  0  0  0  0  0  0  0  0  0  0  0
  -30.9966    2.2578   33.8501 C   0  0  0  0  0  0  0  0  0  0  0  0
  -31.4674    1.8498   32.6142 C   0  0  0  0  0  0  0  0  0  0  0  0
  -31.4356    0.5094   32.2414 C   0  0  0  0  0  0  0  0  0  0  0  0
  -31.9256    2.8779   31.6285 C   0  0  0  0  0  0  0  0  0  0  0  0
  -32.4583    2.6264   30.6329 O   0  0  0  0  0  0  0  0  0  0  0  0
  6  7  1  0
  3  8  1  0
  7  9  1  0
  9 10  2  0
 10 11  1  0
 11 12  2  0
  9 13  1  0
 12 13  1  0
 13 14  1  0
 12 15  1  0
 11 16  1  0
 10 17  1  0
 14 18  1  0
 22 24  1  0
 24 25  2  0
 18 19  2  0
 19 20  1  0
 20 21  2  0
 21 22  1  0
 22 23  2  0
 23 18  1  0
  1  2  2  0
  2  3  1  0
  3  4  2  0
  4  5  1  0
  5  6  2  0
  6  1  1  0
M  END

$$$$
