No_4453-gen_results/8p0m/2024-11-27-11-27-31/
     RDKit          3D

 14 15  0  0  0  0  0  0  0  0999 V2000
  -28.0162   -0.8135   28.8779 C   0  0  0  0  0  0  0  0  0  0  0  0
  -27.0636   -0.1190   28.6079 C   0  0  0  0  0  0  0  0  0  0  0  0
  -26.9716    0.7139   27.5060 C   0  0  0  0  0  0  0  0  0  0  0  0
  -25.8205    1.4909   27.1160 C   0  0  0  0  0  0  0  0  0  0  0  0
  -24.8579    1.3421   27.6008 C   0  0  0  0  0  0  0  0  0  0  0  0
  -23.5687    2.1107   27.3209 C   0  0  0  0  0  0  0  0  0  0  0  0
  -22.3971    1.9189   28.0868 C   0  0  0  0  0  0  0  0  0  0  0  0
  -22.4384    0.9641   29.1108 C   0  0  0  0  0  0  0  0  0  0  0  0
  -24.4954    0.5206   28.8295 C   0  0  0  0  0  0  0  0  0  0  0  0
  -23.3667    0.3516   29.4580 C   0  0  0  0  0  0  0  0  0  0  0  0
  -25.7885   -0.2433   29.1446 C   0  0  0  0  0  0  0  0  0  0  0  0
  -29.2163   -0.0816   29.3245 C   0  0  0  0  0  0  0  0  0  0  0  0
  -30.2396   -0.7852   29.5611 O   0  0  0  0  0  0  0  0  0  0  0  0
  -29.2617    1.1222   29.4093 O   0  0  0  0  0  0  0  0  0  0  0  0
  1  2  2  3
  2  3  1  0
  3  4  1  0
  4  5  1  0
  2 11  1  0
  9 11  1  0
  1 12  1  0
 12 13  1  0
 12 14  2  0
  5  6  2  0
  6  7  1  0
  7  8  2  0
  8 10  1  0
 10  9  2  0
  9  5  1  0
M  END

$$$$
