No_4009-gen_results/8p0m/2024-11-27-11-27-31/
     RDKit          3D

 35 37  0  0  0  0  0  0  0  0999 V2000
  -28.0162   -0.8135   28.8779 C   0  0  0  0  0  0  0  0  0  0  0  0
  -28.4690   -0.7850   29.8287 C   0  0  0  0  0  0  0  0  0  0  0  0
  -28.1960    0.3478   28.0550 C   0  0  0  0  0  0  0  0  0  0  0  0
  -29.0191    1.3501   28.3782 C   0  0  0  0  0  0  0  0  0  0  0  0
  -29.4107    0.1803   30.3782 C   0  0  0  0  0  0  0  0  0  0  0  0
  -29.6059    1.2495   29.6193 C   0  0  0  0  0  0  0  0  0  0  0  0
  -27.4597    0.3802   26.7091 C   0  0  0  0  0  0  0  0  0  0  0  0
  -27.9298    0.5836   25.6804 C   0  0  0  0  0  0  0  0  0  0  0  0
  -27.1250    0.5285   24.4261 C   0  0  0  0  0  0  0  0  0  0  0  0
  -26.0345    0.1369   26.7811 C   0  0  0  0  0  0  0  0  0  0  0  0
  -25.1680    0.2141   25.7256 C   0  0  0  0  0  0  0  0  0  0  0  0
  -25.7623    0.3526   24.5243 C   0  0  0  0  0  0  0  0  0  0  0  0
  -29.8227    0.7120   25.4237 Br  0  0  0  0  0  0  0  0  0  0  0  0
  -30.4476    2.2167   30.0339 F   0  0  0  0  0  0  0  0  0  0  0  0
  -28.0455   -2.0051   30.7236 C   0  0  0  0  0  0  0  0  0  0  0  0
  -27.8841   -2.0156   31.8347 O   0  0  0  0  0  0  0  0  0  0  0  0
  -28.0669   -3.2226   30.0460 O   0  0  0  0  0  0  0  0  0  0  0  0
  -27.9665   -4.3774   30.8092 C   0  0  0  0  0  0  0  0  0  0  0  0
  -29.1741   -5.2469   30.3643 C   0  0  0  0  0  0  0  0  0  0  0  0
  -30.0056   -4.6369   29.4329 C   0  0  0  0  0  0  0  0  0  0  0  0
  -31.1121   -5.6381   29.0506 C   0  0  0  0  0  0  0  0  0  0  0  0
  -31.4181   -6.5327   29.8720 C   0  0  0  0  0  0  0  0  0  0  0  0
  -30.6963   -6.9651   30.9726 C   0  0  0  0  0  0  0  0  0  0  0  0
  -29.5650   -6.2225   31.3171 C   0  0  0  0  0  0  0  0  0  0  0  0
  -31.8802   -5.1919   27.8533 C   0  0  0  0  0  0  0  0  0  0  0  0
  -32.1547   -6.0460   27.0305 O   0  0  0  0  0  0  0  0  0  0  0  0
  -31.9939   -3.9697   27.5335 O   0  0  0  0  0  0  0  0  0  0  0  0
  -30.9776   -8.1339   31.7903 C   0  0  0  0  0  0  0  0  0  0  0  0
  -31.0922   -9.1753   31.1952 F   0  0  0  0  0  0  0  0  0  0  0  0
  -32.1305   -7.8345   32.5039 F   0  0  0  0  0  0  0  0  0  0  0  0
  -30.0820   -8.3635   32.7680 F   0  0  0  0  0  0  0  0  0  0  0  0
  -32.6408   -3.5812   26.3902 C   0  0  0  0  0  0  0  0  0  0  0  0
  -32.0927   -2.2948   25.8415 C   0  0  0  0  0  0  0  0  0  0  0  0
  -32.4084   -1.2372   26.6390 C   0  0  0  0  0  0  0  0  0  0  0  0
  -33.6812   -0.9422   26.9753 C   0  0  0  0  0  0  0  0  0  0  0  0
  3  7  1  0
  8 13  1  0
  6 14  1  0
  2 15  1  0
 15 16  2  0
 15 17  1  0
 17 18  1  0
 18 19  1  0
 21 25  1  0
 25 26  2  0
 25 27  1  0
 23 28  1  0
 28 29  1  0
 28 30  1  0
 28 31  1  0
 27 32  1  0
 32 33  1  0
 33 34  1  0
 34 35  2  0
 19 20  2  0
 20 21  1  0
 21 22  2  0
 22 23  1  0
 23 24  2  0
 24 19  1  0
  1  2  2  0
  2  5  1  0
  5  6  2  0
  6  4  1  0
  4  3  2  0
  3  1  1  0
  7  8  2  0
  8  9  1  0
  9 12  2  0
 12 11  1  0
 11 10  2  0
 10  7  1  0
M  END

$$$$
