No_4752-gen_results/8p0m/2024-11-27-11-27-31/
     RDKit          3D

 19 20  0  0  0  0  0  0  0  0999 V2000
  -28.0162   -0.8135   28.8779 C   0  0  0  0  0  0  0  0  0  0  0  0
  -28.4690   -0.7850   29.8287 C   0  0  0  0  0  0  0  0  0  0  0  0
  -27.0871    0.2903   28.6377 C   0  0  0  0  0  0  0  0  0  0  0  0
  -26.7676    1.0274   29.4716 C   0  0  0  0  0  0  0  0  0  0  0  0
  -28.2764    0.0268   31.0145 C   0  0  0  0  0  0  0  0  0  0  0  0
  -27.3287    1.0538   30.7535 C   0  0  0  0  0  0  0  0  0  0  0  0
  -26.2914    0.2875   27.0609 Cl  0  0  0  0  0  0  0  0  0  0  0  0
  -29.6076   -2.1903   30.0922 Cl  0  0  0  0  0  0  0  0  0  0  0  0
  -25.8271    2.1129   29.2372 O   0  0  0  0  0  0  0  0  0  0  0  0
  -24.5556    1.8215   29.1193 C   0  0  0  0  0  0  0  0  0  0  0  0
  -23.7971    1.3001   30.0665 C   0  0  0  0  0  0  0  0  0  0  0  0
  -22.5155    0.8457   29.8855 C   0  0  0  0  0  0  0  0  0  0  0  0
  -21.9633    0.8547   28.5992 C   0  0  0  0  0  0  0  0  0  0  0  0
  -22.7020    1.5154   27.5660 C   0  0  0  0  0  0  0  0  0  0  0  0
  -24.0184    1.9792   27.8037 C   0  0  0  0  0  0  0  0  0  0  0  0
  -20.7928    0.4295   28.3975 F   0  0  0  0  0  0  0  0  0  0  0  0
  -24.6481    2.5627   26.8238 O   0  0  0  0  0  0  0  0  0  0  0  0
  -24.0609    3.7712   26.3253 C   0  0  0  0  0  0  0  0  0  0  0  0
  -26.9901    2.1713   32.0385 Cl  0  0  0  0  0  0  0  0  0  0  0  0
  3  7  1  0
  2  8  1  0
  4  9  1  0
  9 10  1  0
 13 16  1  0
 15 17  1  0
 17 18  1  0
  6 19  1  0
  1  2  2  0
  2  5  1  0
  5  6  2  0
  6  4  1  0
  4  3  2  0
  3  1  1  0
 10 11  2  0
 11 12  1  0
 12 13  2  0
 13 14  1  0
 14 15  2  0
 15 10  1  0
M  END

$$$$
