No_4539-gen_results/8p0m/2024-11-27-11-27-31/
     RDKit          3D

 30 32  0  0  0  0  0  0  0  0999 V2000
  -28.0162   -0.8135   28.8779 C   0  0  0  0  0  0  0  0  0  0  0  0
  -27.0636   -0.1189   28.6079 C   0  0  0  0  0  0  0  0  0  0  0  0
  -25.7923   -0.4302   29.0761 C   0  0  0  0  0  0  0  0  0  0  0  0
  -24.5456    0.3494   28.8225 C   0  0  0  0  0  0  0  0  0  0  0  0
  -24.6586    1.4196   27.8878 C   0  0  0  0  0  0  0  0  0  0  0  0
  -25.9471    1.6811   27.3792 C   0  0  0  0  0  0  0  0  0  0  0  0
  -27.0439    0.9739   27.6871 C   0  0  0  0  0  0  0  0  0  0  0  0
  -27.9736   -1.7264   29.9612 N   0  0  0  0  0  0  0  0  0  0  0  0
  -29.1042   -0.7485   28.3318 O   0  0  0  0  0  0  0  0  0  0  0  0
  -29.0723   -2.5820   30.4170 C   0  0  0  0  0  0  0  0  0  0  0  0
  -23.4554    2.1714   27.6169 C   0  0  0  0  0  0  0  0  0  0  0  0
  -23.4857    3.1686   26.9639 O   0  0  0  0  0  0  0  0  0  0  0  0
  -22.2615    1.8351   28.2062 N   0  0  0  0  0  0  0  0  0  0  0  0
  -28.7638   -3.9284   30.4546 C   0  0  0  0  0  0  0  0  0  0  0  0
  -29.3623   -4.6475   31.4698 C   0  0  0  0  0  0  0  0  0  0  0  0
  -30.7634   -4.5428   31.3843 C   0  0  0  0  0  0  0  0  0  0  0  0
  -31.2941   -3.2389   31.4986 O   0  0  0  0  0  0  0  0  0  0  0  0
  -30.2922   -2.0912   30.9975 C   0  0  0  0  0  0  0  0  0  0  0  0
  -28.9688   -6.0590   31.4349 O   0  0  0  0  0  0  0  0  0  0  0  0
  -31.4109   -5.1272   30.1739 C   0  0  0  0  0  0  0  0  0  0  0  0
  -31.7715   -6.4154   30.2728 C   0  0  0  0  0  0  0  0  0  0  0  0
  -32.0771   -6.8920   31.4272 C   0  0  0  0  0  0  0  0  0  0  0  0
  -32.5168   -8.2918   31.5918 C   0  0  0  0  0  0  0  0  0  0  0  0
  -32.6163   -9.0675   30.4148 C   0  0  0  0  0  0  0  0  0  0  0  0
  -32.2769   -8.5865   29.1792 C   0  0  0  0  0  0  0  0  0  0  0  0
  -31.8678   -7.2388   29.0598 C   0  0  0  0  0  0  0  0  0  0  0  0
  -31.5140   -6.7465   27.7341 C   0  0  0  0  0  0  0  0  0  0  0  0
  -31.9164   -7.0975   26.7160 Br  0  0  0  0  0  0  0  0  0  0  0  0
  -30.6265   -5.6496   27.9707 O   0  0  0  0  0  0  0  0  0  0  0  0
  -31.6422   -4.3717   29.0696 C   0  0  0  0  0  0  0  0  0  0  0  0
  1  2  1  0
  1  8  1  0
  1  9  2  0
  8 10  1  0
  5 11  1  0
 11 12  2  0
 11 13  1  0
 10 14  1  0
 14 15  1  0
 15 16  1  0
 16 17  1  0
 10 18  1  0
 17 18  1  0
 15 19  1  0
 16 20  1  0
 26 27  1  0
 27 28  1  0
 27 29  2  0
 20 30  1  0
 20 21  1  0
  2  3  2  0
  3  4  1  0
  4  5  2  0
  5  6  1  0
  6  7  2  0
  7  2  1  0
 21 22  2  0
 22 23  1  0
 23 24  2  0
 24 25  1  0
 25 26  2  0
 26 21  1  0
M  END

$$$$
