No_4898-gen_results/8p0m/2024-11-27-11-27-31/
     RDKit          3D

 35 41  0  0  0  0  0  0  0  0999 V2000
  -28.0162   -0.8135   28.8779 C   0  0  0  0  0  0  0  0  0  0  0  0
  -28.4690   -0.7850   29.8287 C   0  0  0  0  0  0  0  0  0  0  0  0
  -26.5042   -0.7777   28.8766 C   0  0  0  0  0  0  0  0  0  0  0  0
  -25.6540   -0.6597   27.7191 C   0  0  0  0  0  0  0  0  0  0  0  0
  -29.9920   -0.8134   29.9579 C   0  0  0  0  0  0  0  0  0  0  0  0
  -24.2351   -0.6217   27.9719 C   0  0  0  0  0  0  0  0  0  0  0  0
  -23.8288   -0.4712   29.1347 C   0  0  0  0  0  0  0  0  0  0  0  0
  -24.5020   -0.4850   30.3217 C   0  0  0  0  0  0  0  0  0  0  0  0
  -25.8813   -0.6423   30.1981 C   0  0  0  0  0  0  0  0  0  0  0  0
  -30.6340   -1.0109   31.1318 C   0  0  0  0  0  0  0  0  0  0  0  0
  -29.9195   -1.0632   32.3344 C   0  0  0  0  0  0  0  0  0  0  0  0
  -28.5672   -1.0736   32.3532 C   0  0  0  0  0  0  0  0  0  0  0  0
  -27.8625   -1.0143   31.2213 C   0  0  0  0  0  0  0  0  0  0  0  0
  -26.4963   -1.1319   31.1926 C   0  0  0  0  0  0  0  0  0  0  0  0
  -30.6363   -0.7071   28.8560 O   0  0  0  0  0  0  0  0  0  0  0  0
  -31.6960    0.0769   28.6858 C   0  0  0  0  0  0  0  0  0  0  0  0
  -31.9363    1.0213   28.9358 C   0  0  0  0  0  0  0  0  0  0  0  0
  -32.7594   -0.7528   27.9060 C   0  0  0  0  0  0  0  0  0  0  0  0
  -30.9032    1.9987   29.5168 C   0  0  0  0  0  0  0  0  0  0  0  0
  -30.6123    2.9770   29.3910 C   0  0  0  0  0  0  0  0  0  0  0  0
  -29.5052    3.7705   30.0353 C   0  0  0  0  0  0  0  0  0  0  0  0
  -28.6605    3.0499   30.8758 C   0  0  0  0  0  0  0  0  0  0  0  0
  -28.9529    1.7345   31.1279 C   0  0  0  0  0  0  0  0  0  0  0  0
  -29.9620    1.2165   30.5157 C   0  0  0  0  0  0  0  0  0  0  0  0
  -30.7978    0.6464   31.4089 C   0  0  0  0  0  0  0  0  0  0  0  0
  -32.4095   -1.5768   26.9928 C   0  0  0  0  0  0  0  0  0  0  0  0
  -31.4993   -1.2235   26.0527 C   0  0  0  0  0  0  0  0  0  0  0  0
  -31.0892    0.0576   25.7660 C   0  0  0  0  0  0  0  0  0  0  0  0
  -30.0807    0.3799   24.8137 C   0  0  0  0  0  0  0  0  0  0  0  0
  -29.4622    1.6480   24.7973 C   0  0  0  0  0  0  0  0  0  0  0  0
  -29.9138    2.6310   25.6748 C   0  0  0  0  0  0  0  0  0  0  0  0
  -30.9725    2.3430   26.5230 C   0  0  0  0  0  0  0  0  0  0  0  0
  -31.3982    1.0777   26.6669 C   0  0  0  0  0  0  0  0  0  0  0  0
  -32.6828    1.1746   27.2800 C   0  0  0  0  0  0  0  0  0  0  0  0
  -33.4483   -1.6462   29.1572 C   0  0  0  0  0  0  0  0  0  0  0  0
  5 15  1  0
 15 16  1  0
 16 17  2  3
 16 18  1  0
 17 19  1  0
 10 25  1  0
 24 25  1  0
 18 26  1  0
 26 27  2  3
 27 28  1  0
 17 34  1  0
 33 34  1  0
 18 35  1  0
  3  4  2  0
  4  6  1  0
  6  7  2  0
  7  8  1  0
  8  9  2  0
  2  5  1  0
  5 10  2  0
 10 11  1  0
 11 12  2  0
 12 13  1  0
 19 20  2  0
 20 21  1  0
 21 22  2  0
 22 23  1  0
 23 24  2  0
 24 19  1  0
 28 29  2  0
 29 30  1  0
 30 31  2  0
 31 32  1  0
 32 33  2  0
 33 28  1  0
  1  2  2  0
  2 13  1  0
 13 14  2  0
 14  9  1  0
  9  3  1  0
  3  1  1  0
M  END

$$$$
