No_4944-gen_results/8p0m/2024-11-27-11-27-31/
     RDKit          3D

 13 13  0  0  0  0  0  0  0  0999 V2000
  -28.0162   -0.8135   28.8779 C   0  0  0  0  0  0  0  0  0  0  0  0
  -28.4690   -0.7850   29.8287 C   0  0  0  0  0  0  0  0  0  0  0  0
  -27.0871    0.2903   28.6377 C   0  0  0  0  0  0  0  0  0  0  0  0
  -26.2516    0.4114   27.4223 C   0  0  0  0  0  0  0  0  0  0  0  0
  -28.3913    0.1041   30.9805 C   0  0  0  0  0  0  0  0  0  0  0  0
  -27.5332    1.1666   30.7866 C   0  0  0  0  0  0  0  0  0  0  0  0
  -26.8281    1.2557   29.6454 C   0  0  0  0  0  0  0  0  0  0  0  0
  -26.2894   -0.3208   26.7008 F   0  0  0  0  0  0  0  0  0  0  0  0
  -26.4501    1.7036   26.8785 F   0  0  0  0  0  0  0  0  0  0  0  0
  -24.8206    0.5393   27.7856 F   0  0  0  0  0  0  0  0  0  0  0  0
  -29.4616   -2.0181   30.2134 C   0  0  0  0  0  0  0  0  0  0  0  0
  -29.0571   -3.1828   30.3946 O   0  0  0  0  0  0  0  0  0  0  0  0
  -30.6476   -1.7982   30.3253 F   0  0  0  0  0  0  0  0  0  0  0  0
  3  4  1  0
  4  8  1  0
  4  9  1  0
  4 10  1  0
  2 11  1  0
 11 12  2  0
 11 13  1  0
  1  2  2  0
  2  5  1  0
  5  6  2  0
  6  7  1  0
  7  3  2  0
  3  1  1  0
M  END

$$$$
