No_4238-gen_results/8p0m/2024-11-27-11-27-31/
     RDKit          3D

 14 14  0  0  0  0  0  0  0  0999 V2000
  -28.0162   -0.8135   28.8779 C   0  0  0  0  0  0  0  0  0  0  0  0
  -28.4690   -0.7850   29.8287 C   0  0  0  0  0  0  0  0  0  0  0  0
  -26.5042   -0.7777   28.8766 C   0  0  0  0  0  0  0  0  0  0  0  0
  -25.9150   -0.6580   29.9230 C   0  0  0  0  0  0  0  0  0  0  0  0
  -27.9691   -0.7243   31.2047 C   0  0  0  0  0  0  0  0  0  0  0  0
  -26.5847   -0.6393   31.2062 C   0  0  0  0  0  0  0  0  0  0  0  0
  -30.0752   -0.8832   29.9049 C   0  0  0  0  0  0  0  0  0  0  0  0
  -30.7509   -0.0157   30.5283 N   0  0  0  0  0  0  0  0  0  0  0  0
  -31.4880    0.7308   30.3065 C   0  0  0  0  0  0  0  0  0  0  0  0
  -32.1775    1.6690   31.2124 C   0  0  0  0  0  0  0  0  0  0  0  0
  -31.8457    0.8668   28.9902 F   0  0  0  0  0  0  0  0  0  0  0  0
  -31.9138    1.4653   32.4307 N   0  0  0  0  0  0  0  0  0  0  0  0
  -32.2746    2.3339   33.4419 C   0  0  0  0  0  0  0  0  0  0  0  0
  -31.7542    2.1044   34.7496 C   0  0  0  0  0  0  0  0  0  0  0  0
  2  7  1  0
  7  8  1  0
  8  9  1  0
  9 10  2  3
  9 11  1  0
 10 12  1  0
 12 13  1  0
 13 14  2  0
  1  2  2  0
  2  5  1  0
  5  6  2  0
  6  4  1  0
  4  3  2  0
  3  1  1  0
M  END

$$$$
