No_4270-gen_results/8p0m/2024-11-27-11-27-31/
     RDKit          3D

 17 18  0  0  0  0  0  0  0  0999 V2000
  -28.0162   -0.8135   28.8779 C   0  0  0  0  0  0  0  0  0  0  0  0
  -27.0636   -0.1189   28.6079 C   0  0  0  0  0  0  0  0  0  0  0  0
  -26.9716    0.7139   27.5060 C   0  0  0  0  0  0  0  0  0  0  0  0
  -28.1053    0.7744   26.6421 C   0  0  0  0  0  0  0  0  0  0  0  0
  -29.2041    0.1179   27.0477 C   0  0  0  0  0  0  0  0  0  0  0  0
  -29.2127   -0.6088   28.1281 C   0  0  0  0  0  0  0  0  0  0  0  0
  -25.7106    1.4518   27.1380 C   0  0  0  0  0  0  0  0  0  0  0  0
  -24.6323    0.9875   27.6036 N   0  0  0  0  0  0  0  0  0  0  0  0
  -24.1504    0.0110   27.9700 C   0  0  0  0  0  0  0  0  0  0  0  0
  -22.8387   -0.0735   28.6168 C   0  0  0  0  0  0  0  0  0  0  0  0
  -22.2969    1.2045   28.2443 C   0  0  0  0  0  0  0  0  0  0  0  0
  -23.4610    2.0229   27.7304 C   0  0  0  0  0  0  0  0  0  0  0  0
  -25.8204    2.3948   26.3290 O   0  0  0  0  0  0  0  0  0  0  0  0
  -30.4159    0.2461   26.2142 C   0  0  0  0  0  0  0  0  0  0  0  0
  -30.3723    0.3175   25.1094 O   0  0  0  0  0  0  0  0  0  0  0  0
  -31.5668    0.4988   26.8471 N   0  0  0  0  0  0  0  0  0  0  0  0
  -32.8164    0.6656   26.1403 C   0  0  0  0  0  0  0  0  0  0  0  0
  3  7  1  0
  7  8  1  0
  8  9  1  0
  9 10  2  0
 10 11  1  0
  8 12  1  0
 11 12  1  0
  7 13  2  0
  5 14  1  0
 14 15  2  0
 14 16  1  0
 16 17  1  0
  1  2  2  0
  2  3  1  0
  3  4  2  0
  4  5  1  0
  5  6  2  0
  6  1  1  0
M  END

$$$$
