No_4759-gen_results/8p0m/2024-11-27-11-27-31/
     RDKit          3D

 24 26  0  0  0  0  0  0  0  0999 V2000
  -28.1493   -0.8198   28.9079 Cl  0  0  0  0  0  0  0  0  0  0  0  0
  -27.8339    0.4961   29.0598 C   0  0  0  0  0  0  0  0  0  0  0  0
  -27.6022    1.0128   30.2974 C   0  0  0  0  0  0  0  0  0  0  0  0
  -27.1699    2.3964   30.5338 C   0  0  0  0  0  0  0  0  0  0  0  0
  -26.7536    2.9696   29.7665 C   0  0  0  0  0  0  0  0  0  0  0  0
  -26.2072    4.3782   29.8828 C   0  0  0  0  0  0  0  0  0  0  0  0
  -26.1100    4.8116   31.2484 C   0  0  0  0  0  0  0  0  0  0  0  0
  -26.5461    4.0004   32.2631 C   0  0  0  0  0  0  0  0  0  0  0  0
  -27.0301    2.7413   31.9896 C   0  0  0  0  0  0  0  0  0  0  0  0
  -27.6245    1.4284   27.9637 C   0  0  0  0  0  0  0  0  0  0  0  0
  -26.9699    2.7324   28.2865 C   0  0  0  0  0  0  0  0  0  0  0  0
  -25.6874    5.2778   28.8515 C   0  0  0  0  0  0  0  0  0  0  0  0
  -25.4857    4.8253   27.2376 Cl  0  0  0  0  0  0  0  0  0  0  0  0
  -25.4336    6.5514   29.0837 O   0  0  0  0  0  0  0  0  0  0  0  0
  -27.7632    0.9937   26.6173 C   0  0  0  0  0  0  0  0  0  0  0  0
  -26.9600    0.8357   25.7297 C   0  0  0  0  0  0  0  0  0  0  0  0
  -27.2146    0.2843   24.4520 C   0  0  0  0  0  0  0  0  0  0  0  0
  -29.1189    0.7417   26.1846 C   0  0  0  0  0  0  0  0  0  0  0  0
  -29.4541    0.2737   24.9951 C   0  0  0  0  0  0  0  0  0  0  0  0
  -28.4523   -0.0038   24.0705 C   0  0  0  0  0  0  0  0  0  0  0  0
  -31.0376   -0.1206   24.5486 Cl  0  0  0  0  0  0  0  0  0  0  0  0
  -26.3422    4.4848   33.6855 C   0  0  0  0  0  0  0  0  0  0  0  0
  -25.4358    5.1848   33.8952 O   0  0  0  0  0  0  0  0  0  0  0  0
  -27.1043    4.0299   34.5864 O   0  0  0  0  0  0  0  0  0  0  0  0
  1  2  1  0
  6 12  1  0
 12 13  1  0
 12 14  2  0
 10 15  1  0
 19 21  1  0
  8 22  1  0
 22 23  2  0
 22 24  1  0
 15 16  2  0
 16 17  1  0
 17 20  2  0
 20 19  1  0
 19 18  2  0
 18 15  1  0
  2  3  2  0
  3  4  1  0
  5 11  1  0
 11 10  2  0
 10  2  1  0
  4  5  2  0
  5  6  1  0
  6  7  2  0
  7  8  1  0
  8  9  2  0
  9  4  1  0
M  END

$$$$
