No_4301-gen_results/8p0m/2024-11-27-11-27-31/
     RDKit          3D

 13 13  0  0  0  0  0  0  0  0999 V2000
  -28.0162   -0.8135   28.8779 C   0  0  0  0  0  0  0  0  0  0  0  0
  -28.4690   -0.7850   29.8287 C   0  0  0  0  0  0  0  0  0  0  0  0
  -26.5455   -0.8762   28.8500 C   0  0  0  0  0  0  0  0  0  0  0  0
  -25.8041   -1.0324   30.0571 C   0  0  0  0  0  0  0  0  0  0  0  0
  -27.9437   -0.9869   31.2075 C   0  0  0  0  0  0  0  0  0  0  0  0
  -26.5825   -1.0386   31.2231 C   0  0  0  0  0  0  0  0  0  0  0  0
  -30.0606   -0.7371   29.9024 C   0  0  0  0  0  0  0  0  0  0  0  0
  -30.5524   -0.2769   29.0111 O   0  0  0  0  0  0  0  0  0  0  0  0
  -30.7428   -1.2890   30.9939 N   0  0  0  0  0  0  0  0  0  0  0  0
  -32.1712   -1.2601   30.9750 C   0  0  0  0  0  0  0  0  0  0  0  0
  -24.1309   -1.0949   30.0912 Cl  0  0  0  0  0  0  0  0  0  0  0  0
  -32.8979   -0.5475   30.6352 C   0  0  0  0  0  0  0  0  0  0  0  0
  -32.4276    0.7994   30.2384 C   0  0  0  0  0  0  0  0  0  0  0  0
  2  7  1  0
  7  8  2  0
  7  9  1  0
  9 10  1  0
  4 11  1  0
 10 12  2  3
 12 13  1  0
  1  2  2  0
  2  5  1  0
  5  6  2  0
  6  4  1  0
  4  3  2  0
  3  1  1  0
M  END

$$$$
