No_405-gen_results/8p0m/2024-11-27-11-27-31/
     RDKit          3D

 29 31  0  0  0  0  0  0  0  0999 V2000
  -28.0162   -0.8135   28.8779 C   0  0  0  0  0  0  0  0  0  0  0  0
  -27.0636   -0.1189   28.6079 C   0  0  0  0  0  0  0  0  0  0  0  0
  -27.0010    0.6913   27.4910 C   0  0  0  0  0  0  0  0  0  0  0  0
  -25.8548    1.4825   27.0830 C   0  0  0  0  0  0  0  0  0  0  0  0
  -24.6901    1.4526   27.8807 C   0  0  0  0  0  0  0  0  0  0  0  0
  -24.7379    0.6010   29.0416 C   0  0  0  0  0  0  0  0  0  0  0  0
  -25.8234   -0.1688   29.3887 C   0  0  0  0  0  0  0  0  0  0  0  0
  -28.7350   -0.4637   30.1419 C   0  0  0  0  0  0  0  0  0  0  0  0
  -29.8111   -1.3049   30.6008 C   0  0  0  0  0  0  0  0  0  0  0  0
  -23.5152    2.1989   27.5480 C   0  0  0  0  0  0  0  0  0  0  0  0
  -22.5945    2.2742   28.3342 O   0  0  0  0  0  0  0  0  0  0  0  0
  -23.3916    2.6273   26.2989 O   0  0  0  0  0  0  0  0  0  0  0  0
  -30.0422   -2.3827   29.9307 C   0  0  0  0  0  0  0  0  0  0  0  0
  -31.1985   -3.1249   30.4232 C   0  0  0  0  0  0  0  0  0  0  0  0
  -31.9112   -2.7215   31.4351 C   0  0  0  0  0  0  0  0  0  0  0  0
  -31.6440   -1.5777   32.1156 C   0  0  0  0  0  0  0  0  0  0  0  0
  -30.5747   -0.7893   31.7036 C   0  0  0  0  0  0  0  0  0  0  0  0
  -29.0823    1.0376   30.2932 C   0  0  0  0  0  0  0  0  0  0  0  0
  -29.8437    1.6534   29.3667 C   0  0  0  0  0  0  0  0  0  0  0  0
  -30.6945    1.2239   28.6011 C   0  0  0  0  0  0  0  0  0  0  0  0
  -31.4727    1.9420   27.6894 C   0  0  0  0  0  0  0  0  0  0  0  0
  -29.9804    3.0926   29.6281 C   0  0  0  0  0  0  0  0  0  0  0  0
  -30.7518    3.9007   28.7803 C   0  0  0  0  0  0  0  0  0  0  0  0
  -31.5587    3.3038   27.8461 C   0  0  0  0  0  0  0  0  0  0  0  0
  -28.2657    1.6711   31.3762 C   0  0  0  0  0  0  0  0  0  0  0  0
  -27.8005    1.1791   32.3954 C   0  0  0  0  0  0  0  0  0  0  0  0
  -27.0508    1.8096   33.3792 C   0  0  0  0  0  0  0  0  0  0  0  0
  -26.7115    3.1666   33.2174 C   0  0  0  0  0  0  0  0  0  0  0  0
  -27.1595    3.8274   32.0343 C   0  0  0  0  0  0  0  0  0  0  0  0
  1  2  1  0
  1  8  1  0
  8  9  1  0
  5 10  1  0
 10 11  2  0
 10 12  1  0
  8 18  1  0
 18 19  1  0
 18 25  1  0
 25 26  2  3
 26 27  1  0
 27 28  2  3
 28 29  1  0
  2  3  2  0
  3  4  1  0
  4  5  2  0
  5  6  1  0
  6  7  2  0
  7  2  1  0
  9 13  2  0
 13 14  1  0
 14 15  2  0
 15 16  1  0
 16 17  2  0
 17  9  1  0
 19 20  2  0
 20 21  1  0
 21 24  2  0
 24 23  1  0
 23 22  2  0
 22 19  1  0
M  END

$$$$
