No_4041-gen_results/8p0m/2024-11-27-11-27-31/
     RDKit          3D

 29 32  0  0  0  0  0  0  0  0999 V2000
  -28.0162   -0.8135   28.8779 C   0  0  0  0  0  0  0  0  0  0  0  0
  -28.4690   -0.7850   29.8287 C   0  0  0  0  0  0  0  0  0  0  0  0
  -28.1960    0.3478   28.0550 C   0  0  0  0  0  0  0  0  0  0  0  0
  -29.0191    1.3501   28.3782 C   0  0  0  0  0  0  0  0  0  0  0  0
  -28.3170   -1.9812   30.8560 C   0  0  0  0  0  0  0  0  0  0  0  0
  -29.5950    1.2859   29.6049 C   0  0  0  0  0  0  0  0  0  0  0  0
  -29.3465    0.2093   30.3749 C   0  0  0  0  0  0  0  0  0  0  0  0
  -29.2222   -3.0627   30.7128 C   0  0  0  0  0  0  0  0  0  0  0  0
  -30.2926   -2.9488   31.1885 C   0  0  0  0  0  0  0  0  0  0  0  0
  -31.2726   -4.0692   30.9144 C   0  0  0  0  0  0  0  0  0  0  0  0
  -30.8366   -5.1515   30.1709 C   0  0  0  0  0  0  0  0  0  0  0  0
  -29.5676   -5.1651   29.6515 C   0  0  0  0  0  0  0  0  0  0  0  0
  -28.6634   -4.1461   29.9546 C   0  0  0  0  0  0  0  0  0  0  0  0
  -27.5139    0.3643   26.6613 C   0  0  0  0  0  0  0  0  0  0  0  0
  -28.1882    0.3804   25.5130 C   0  0  0  0  0  0  0  0  0  0  0  0
  -26.0741    0.2762   26.6533 C   0  0  0  0  0  0  0  0  0  0  0  0
  -25.2885    1.3015   27.1216 C   0  0  0  0  0  0  0  0  0  0  0  0
  -24.9543    2.2728   26.4258 C   0  0  0  0  0  0  0  0  0  0  0  0
  -23.9832    3.3040   26.8668 C   0  0  0  0  0  0  0  0  0  0  0  0
  -24.4884    1.0011   28.3954 C   0  0  0  0  0  0  0  0  0  0  0  0
  -24.6101   -0.1391   29.1549 C   0  0  0  0  0  0  0  0  0  0  0  0
  -24.0180   -0.2687   30.3017 C   0  0  0  0  0  0  0  0  0  0  0  0
  -23.2572    3.0303   27.9651 C   0  0  0  0  0  0  0  0  0  0  0  0
  -23.4835    1.9060   28.7588 C   0  0  0  0  0  0  0  0  0  0  0  0
  -25.5177   -0.7757   25.8990 C   0  0  0  0  0  0  0  0  0  0  0  0
  -23.0612    0.6868   30.6961 C   0  0  0  0  0  0  0  0  0  0  0  0
  -22.7538    1.7690   29.9888 C   0  0  0  0  0  0  0  0  0  0  0  0
  -27.8403   -0.0313   24.4865 O   0  0  0  0  0  0  0  0  0  0  0  0
  -29.4933    0.8106   25.5349 F   0  0  0  0  0  0  0  0  0  0  0  0
  2  5  1  0
  5  8  1  0
  3 14  1  0
 14 15  1  0
 14 16  1  0
 16 17  1  0
 16 25  1  0
 15 28  2  0
 15 29  1  0
 17 18  2  0
 18 19  1  0
 19 23  2  0
 23 24  1  0
 20 17  1  0
 20 21  2  0
 21 22  1  0
 22 26  2  0
 26 27  1  0
 27 24  2  0
 24 20  1  0
  8  9  2  0
  9 10  1  0
 10 11  2  0
 11 12  1  0
 12 13  2  0
 13  8  1  0
  1  2  2  0
  2  7  1  0
  7  6  2  0
  6  4  1  0
  4  3  2  0
  3  1  1  0
M  END

$$$$
