No_4997-gen_results/8p0m/2024-11-27-11-27-31/
     RDKit          3D

 14 14  0  0  0  0  0  0  0  0999 V2000
  -28.1229   -1.3353   28.4874 O   0  0  0  0  0  0  0  0  0  0  0  0
  -27.4806   -0.4044   28.7094 C   0  0  0  0  0  0  0  0  0  0  0  0
  -26.3804   -0.0867   27.9394 C   0  0  0  0  0  0  0  0  0  0  0  0
  -27.6664    0.4468   29.8988 N   0  0  0  0  0  0  0  0  0  0  0  0
  -26.3802    0.6870   26.8571 N   0  0  0  0  0  0  0  0  0  0  0  0
  -25.1101   -0.1593   28.4480 O   0  0  0  0  0  0  0  0  0  0  0  0
  -27.5947    1.0145   26.2386 C   0  0  0  0  0  0  0  0  0  0  0  0
  -26.9623    1.4599   30.3535 C   0  0  0  0  0  0  0  0  0  0  0  0
  -27.4267    2.4378   30.7289 C   0  0  0  0  0  0  0  0  0  0  0  0
  -26.6049    3.5812   31.2645 C   0  0  0  0  0  0  0  0  0  0  0  0
  -25.1866    3.4186   31.2419 C   0  0  0  0  0  0  0  0  0  0  0  0
  -24.6621    2.1831   30.8099 C   0  0  0  0  0  0  0  0  0  0  0  0
  -25.4960    1.2112   30.3870 C   0  0  0  0  0  0  0  0  0  0  0  0
  -25.2116    1.1323   26.1093 C   0  0  0  0  0  0  0  0  0  0  0  0
  1  2  2  0
  2  3  1  0
  2  4  1  0
  3  5  1  0
  3  6  2  0
  5  7  1  0
  4  8  1  0
  5 14  1  0
  8  9  2  0
  9 10  1  0
 10 11  2  0
 11 12  1  0
 12 13  2  0
 13  8  1  0
M  END

$$$$
