No_4794-gen_results/8p0m/2024-11-27-11-27-31/
     RDKit          3D

 22 22  0  0  0  0  0  0  0  0999 V2000
  -28.0162   -0.8135   28.8779 C   0  0  0  0  0  0  0  0  0  0  0  0
  -27.0636   -0.1190   28.6079 C   0  0  0  0  0  0  0  0  0  0  0  0
  -25.7647   -0.3897   29.0360 C   0  0  0  0  0  0  0  0  0  0  0  0
  -24.5516    0.4058   28.7646 C   0  0  0  0  0  0  0  0  0  0  0  0
  -24.6957    1.4480   27.7988 C   0  0  0  0  0  0  0  0  0  0  0  0
  -25.9755    1.7250   27.3077 C   0  0  0  0  0  0  0  0  0  0  0  0
  -27.0718    1.0134   27.6535 C   0  0  0  0  0  0  0  0  0  0  0  0
  -28.6178   -0.4695   30.2207 C   0  0  0  0  0  0  0  0  0  0  0  0
  -29.7296   -1.2768   30.7206 C   0  0  0  0  0  0  0  0  0  0  0  0
  -23.4863    2.1902   27.4840 C   0  0  0  0  0  0  0  0  0  0  0  0
  -23.6800    3.1912   26.7880 F   0  0  0  0  0  0  0  0  0  0  0  0
  -22.5703    1.4222   26.7437 F   0  0  0  0  0  0  0  0  0  0  0  0
  -22.8297    2.6421   28.5687 F   0  0  0  0  0  0  0  0  0  0  0  0
  -29.0408    0.8787   30.4203 O   0  0  0  0  0  0  0  0  0  0  0  0
  -30.1566   -0.9903   31.8233 O   0  0  0  0  0  0  0  0  0  0  0  0
  -30.3317   -2.2070   30.0878 O   0  0  0  0  0  0  0  0  0  0  0  0
  -25.5256   -1.4573   30.0533 C   0  0  0  0  0  0  0  0  0  0  0  0
  -24.4859   -2.3369   29.7986 C   0  0  0  0  0  0  0  0  0  0  0  0
  -25.4497   -1.0294   31.5193 C   0  0  0  0  0  0  0  0  0  0  0  0
  -28.3314    1.4703   27.0046 C   0  0  0  0  0  0  0  0  0  0  0  0
  -28.9639    2.3559   27.5017 C   0  0  0  0  0  0  0  0  0  0  0  0
  -30.2523    2.7877   26.9324 C   0  0  0  0  0  0  0  0  0  0  0  0
  1  8  1  0
  8  9  1  0
  5 10  1  0
 10 11  1  0
 10 12  1  0
 10 13  1  0
  8 14  1  0
  9 15  2  0
  9 16  1  0
  3 17  1  0
 17 18  1  0
 17 19  1  0
  7 20  1  0
 20 21  2  3
 21 22  1  0
  1  2  1  0
  2  3  2  0
  3  4  1  0
  4  5  2  0
  5  6  1  0
  6  7  2  0
  7  2  1  0
M  END

$$$$
