No_4161-gen_results/8p0m/2024-11-27-11-27-31/
     RDKit          3D

 21 21  0  0  0  0  0  0  0  0999 V2000
  -28.0162   -0.8135   28.8779 C   0  0  0  0  0  0  0  0  0  0  0  0
  -27.0636   -0.1189   28.6079 C   0  0  0  0  0  0  0  0  0  0  0  0
  -26.8756    1.1325   28.9134 C   0  0  0  0  0  0  0  0  0  0  0  0
  -25.6883    1.9515   28.5672 C   0  0  0  0  0  0  0  0  0  0  0  0
  -24.6394    1.2834   27.8753 C   0  0  0  0  0  0  0  0  0  0  0  0
  -24.8068   -0.0513   27.6040 C   0  0  0  0  0  0  0  0  0  0  0  0
  -25.9019   -0.7670   27.9511 C   0  0  0  0  0  0  0  0  0  0  0  0
  -29.0651   -0.4171   28.3436 F   0  0  0  0  0  0  0  0  0  0  0  0
  -28.2631   -0.8466   30.2895 F   0  0  0  0  0  0  0  0  0  0  0  0
  -23.4268    1.9693   27.5073 C   0  0  0  0  0  0  0  0  0  0  0  0
  -22.3284    1.6876   27.9259 O   0  0  0  0  0  0  0  0  0  0  0  0
  -23.4906    2.6521   26.2913 O   0  0  0  0  0  0  0  0  0  0  0  0
  -25.5458    3.3748   28.9057 C   0  0  0  0  0  0  0  0  0  0  0  0
  -26.6953    3.9717   28.9615 N   0  0  0  0  0  0  0  0  0  0  0  0
  -26.8827    5.2079   28.8152 C   0  0  0  0  0  0  0  0  0  0  0  0
  -25.7943    5.9421   28.7002 C   0  0  0  0  0  0  0  0  0  0  0  0
  -25.8373    7.3889   28.8233 C   0  0  0  0  0  0  0  0  0  0  0  0
  -24.6227    8.0840   29.1354 C   0  0  0  0  0  0  0  0  0  0  0  0
  -24.5256    9.0692   30.0444 C   0  0  0  0  0  0  0  0  0  0  0  0
  -25.7055    9.7335   30.4554 C   0  0  0  0  0  0  0  0  0  0  0  0
  -26.8916    9.0981   30.1295 C   0  0  0  0  0  0  0  0  0  0  0  0
  1  8  1  0
  1  9  1  0
  5 10  1  0
 10 11  2  0
 10 12  1  0
  4 13  1  0
 13 14  1  0
 14 15  1  0
 15 16  2  3
 16 17  1  0
 17 18  2  3
 18 19  1  0
 19 20  2  3
 20 21  1  0
  1  2  1  0
  2  3  2  0
  3  4  1  0
  4  5  2  0
  5  6  1  0
  6  7  2  0
  7  2  1  0
M  END

$$$$
