No_4071-gen_results/8p0m/2024-11-27-11-27-31/
     RDKit          3D

 17 18  0  0  0  0  0  0  0  0999 V2000
  -28.0162   -0.8135   28.8779 C   0  0  0  0  0  0  0  0  0  0  0  0
  -28.4690   -0.7850   29.8287 C   0  0  0  0  0  0  0  0  0  0  0  0
  -27.1356    0.2359   28.5352 C   0  0  0  0  0  0  0  0  0  0  0  0
  -26.8745    1.2825   29.3982 C   0  0  0  0  0  0  0  0  0  0  0  0
  -28.3613    0.1987   30.9244 C   0  0  0  0  0  0  0  0  0  0  0  0
  -27.5277    1.2234   30.6356 C   0  0  0  0  0  0  0  0  0  0  0  0
  -26.2846    0.2758   27.0339 Cl  0  0  0  0  0  0  0  0  0  0  0  0
  -29.1756    0.0775   32.4353 Cl  0  0  0  0  0  0  0  0  0  0  0  0
  -25.9818    2.4046   29.0790 C   0  0  0  0  0  0  0  0  0  0  0  0
  -26.0693    3.1893   27.9929 C   0  0  0  0  0  0  0  0  0  0  0  0
  -25.0118    4.0249   27.5625 C   0  0  0  0  0  0  0  0  0  0  0  0
  -25.2763    5.1669   26.9573 C   0  0  0  0  0  0  0  0  0  0  0  0
  -26.6182    5.5050   26.6391 C   0  0  0  0  0  0  0  0  0  0  0  0
  -27.6586    4.7203   27.1037 C   0  0  0  0  0  0  0  0  0  0  0  0
  -27.4133    3.6754   27.8739 C   0  0  0  0  0  0  0  0  0  0  0  0
  -24.7906    2.4047   29.9897 C   0  0  0  0  0  0  0  0  0  0  0  0
  -24.8221    3.0538   31.0195 O   0  0  0  0  0  0  0  0  0  0  0  0
  3  7  1  0
  5  8  1  0
  4  9  1  0
  9 10  1  0
  9 16  1  0
 16 17  2  0
  1  2  2  0
  2  5  1  0
  5  6  2  0
  6  4  1  0
  4  3  2  0
  3  1  1  0
 10 11  2  0
 11 12  1  0
 12 13  2  0
 13 14  1  0
 14 15  2  0
 15 10  1  0
M  END

$$$$
