No_4967-gen_results/8p0m/2024-11-27-11-27-31/
     RDKit          3D

 35 37  0  0  0  0  0  0  0  0999 V2000
  -28.1493   -0.8198   28.9079 Cl  0  0  0  0  0  0  0  0  0  0  0  0
  -26.9116   -0.0797   28.9452 C   0  0  0  0  0  0  0  0  0  0  0  0
  -26.7384    1.0439   29.2534 C   0  0  0  0  0  0  0  0  0  0  0  0
  -25.4392    1.7115   29.2755 C   0  0  0  0  0  0  0  0  0  0  0  0
  -24.2812    0.9888   28.8542 C   0  0  0  0  0  0  0  0  0  0  0  0
  -24.4869   -0.3041   28.4957 C   0  0  0  0  0  0  0  0  0  0  0  0
  -25.7046   -0.8667   28.5244 C   0  0  0  0  0  0  0  0  0  0  0  0
  -23.0486    1.5906   28.8052 N   0  0  0  0  0  0  0  0  0  0  0  0
  -22.2227    1.3905   27.7247 C   0  0  0  0  0  0  0  0  0  0  0  0
  -22.4222    1.9636   26.6754 C   0  0  0  0  0  0  0  0  0  0  0  0
  -21.1131    0.8152   28.0408 O   0  0  0  0  0  0  0  0  0  0  0  0
  -23.4863    2.8339   26.3966 C   0  0  0  0  0  0  0  0  0  0  0  0
  -24.2744    2.9524   27.0692 F   0  0  0  0  0  0  0  0  0  0  0  0
  -23.5306    3.2772   25.1560 F   0  0  0  0  0  0  0  0  0  0  0  0
  -27.8364    1.9571   29.7758 C   0  0  0  0  0  0  0  0  0  0  0  0
  -28.2948    1.8822   30.8598 N   0  0  0  0  0  0  0  0  0  0  0  0
  -27.7928    1.5645   31.8736 C   0  0  0  0  0  0  0  0  0  0  0  0
  -26.6906    2.1454   32.3000 C   0  0  0  0  0  0  0  0  0  0  0  0
  -25.9167    1.7399   33.4978 C   0  0  0  0  0  0  0  0  0  0  0  0
  -26.3958    0.6592   34.2267 C   0  0  0  0  0  0  0  0  0  0  0  0
  -27.5635    0.0374   33.8064 C   0  0  0  0  0  0  0  0  0  0  0  0
  -28.2109    0.4268   32.6966 C   0  0  0  0  0  0  0  0  0  0  0  0
  -28.0024    3.0122   28.9648 N   0  0  0  0  0  0  0  0  0  0  0  0
  -29.1816    3.6945   28.9226 C   0  0  0  0  0  0  0  0  0  0  0  0
  -29.1915    4.7524   28.0794 C   0  0  0  0  0  0  0  0  0  0  0  0
  -30.2187    5.6618   27.9600 C   0  0  0  0  0  0  0  0  0  0  0  0
  -31.4079    5.3847   28.6831 C   0  0  0  0  0  0  0  0  0  0  0  0
  -31.4033    4.2988   29.5355 C   0  0  0  0  0  0  0  0  0  0  0  0
  -30.2372    3.4808   29.7539 C   0  0  0  0  0  0  0  0  0  0  0  0
  -32.6055    4.0664   30.4011 C   0  0  0  0  0  0  0  0  0  0  0  0
  -33.3981    3.2920   30.1980 O   0  0  0  0  0  0  0  0  0  0  0  0
  -32.6384    4.8101   31.5579 O   0  0  0  0  0  0  0  0  0  0  0  0
  -29.4205   -0.3008   32.2770 C   0  0  0  0  0  0  0  0  0  0  0  0
  -29.4672   -1.6204   32.3943 C   0  0  0  0  0  0  0  0  0  0  0  0
  -30.4716   -2.3330   31.7001 C   0  0  0  0  0  0  0  0  0  0  0  0
  1  2  1  0
  5  8  1  0
  8  9  1  0
  9 10  1  0
  9 11  2  0
 10 12  1  0
 12 13  1  0
 12 14  1  0
  3 15  1  0
 15 16  1  0
 16 17  1  0
 15 23  2  3
 23 24  1  0
 28 30  1  0
 30 31  2  0
 30 32  1  0
 22 33  1  0
 33 34  1  0
 34 35  2  0
 17 18  2  0
 18 19  1  0
 19 20  2  0
 20 21  1  0
 21 22  2  0
 22 17  1  0
  2  3  2  0
  3  4  1  0
  4  5  2  0
  5  6  1  0
  6  7  2  0
  7  2  1  0
 24 25  2  0
 25 26  1  0
 26 27  2  0
 27 28  1  0
 28 29  2  0
 29 24  1  0
M  END

$$$$
