No_4847-gen_results/8p0m/2024-11-27-11-27-31/
     RDKit          3D

 12 12  0  0  0  0  0  0  0  0999 V2000
  -28.0162   -0.8135   28.8779 C   0  0  0  0  0  0  0  0  0  0  0  0
  -28.4690   -0.7850   29.8287 C   0  0  0  0  0  0  0  0  0  0  0  0
  -27.0871    0.2903   28.6377 C   0  0  0  0  0  0  0  0  0  0  0  0
  -26.9103    0.8486   27.4199 C   0  0  0  0  0  0  0  0  0  0  0  0
  -27.8904   -0.5560   31.0200 N   0  0  0  0  0  0  0  0  0  0  0  0
  -27.4584    0.9384   26.5464 C   0  0  0  0  0  0  0  0  0  0  0  0
  -27.0364    1.4212   25.1919 C   0  0  0  0  0  0  0  0  0  0  0  0
  -27.8235    1.4675   24.0572 C   0  0  0  0  0  0  0  0  0  0  0  0
  -26.8992    0.3934   31.0815 C   0  0  0  0  0  0  0  0  0  0  0  0
  -26.4802    0.8565   29.8969 C   0  0  0  0  0  0  0  0  0  0  0  0
  -25.4081    1.1451   27.1072 C   0  0  0  0  0  0  0  0  0  0  0  0
  -24.8542    1.6392   25.9765 C   0  0  0  0  0  0  0  0  0  0  0  0
  3  4  1  0
  4  6  2  3
  6  7  1  0
  7  8  2  0
  4 11  1  0
 11 12  2  0
  1  2  2  0
  2  5  1  0
  5  9  2  0
  9 10  1  0
 10  3  2  0
  3  1  1  0
M  END

$$$$
