No_484-gen_results/8p0m/2024-11-27-11-27-31/
     RDKit          3D

 22 24  0  0  0  0  0  0  0  0999 V2000
  -28.0162   -0.8135   28.8779 C   0  0  0  0  0  0  0  0  0  0  0  0
  -28.4690   -0.7850   29.8287 C   0  0  0  0  0  0  0  0  0  0  0  0
  -28.1816    0.4277   28.1134 C   0  0  0  0  0  0  0  0  0  0  0  0
  -27.4498    0.6435   26.8500 C   0  0  0  0  0  0  0  0  0  0  0  0
  -27.8596    1.4573   25.9076 C   0  0  0  0  0  0  0  0  0  0  0  0
  -29.4263    0.1097   30.4178 C   0  0  0  0  0  0  0  0  0  0  0  0
  -29.6233    1.2198   29.7351 C   0  0  0  0  0  0  0  0  0  0  0  0
  -28.9609    1.4529   28.5513 C   0  0  0  0  0  0  0  0  0  0  0  0
  -28.7869    2.5467   26.3167 C   0  0  0  0  0  0  0  0  0  0  0  0
  -29.4265    2.4288   27.5639 C   0  0  0  0  0  0  0  0  0  0  0  0
  -26.4001   -0.3018   26.3714 C   0  0  0  0  0  0  0  0  0  0  0  0
  -25.2563   -0.2662   27.3731 C   0  0  0  0  0  0  0  0  0  0  0  0
  -24.3202    0.7533   27.2842 C   0  0  0  0  0  0  0  0  0  0  0  0
  -23.2076    0.7771   28.1026 C   0  0  0  0  0  0  0  0  0  0  0  0
  -22.8552   -0.3510   28.8464 C   0  0  0  0  0  0  0  0  0  0  0  0
  -24.8864   -1.4235   28.1452 C   0  0  0  0  0  0  0  0  0  0  0  0
  -23.7096   -1.4089   28.8936 C   0  0  0  0  0  0  0  0  0  0  0  0
  -28.2235   -2.0761   30.8023 C   0  0  0  0  0  0  0  0  0  0  0  0
  -27.6736   -2.9659   30.2959 O   0  0  0  0  0  0  0  0  0  0  0  0
  -28.6344   -2.0407   32.0036 O   0  0  0  0  0  0  0  0  0  0  0  0
  -30.2665    3.3968   27.9696 O   0  0  0  0  0  0  0  0  0  0  0  0
  -26.3344   -0.8981   25.3904 O   0  0  0  0  0  0  0  0  0  0  0  0
  3  4  1  0
  5  9  1  0
  8 10  1  0
  9 10  1  0
  4 11  1  0
 11 12  1  0
  2 18  1  0
 18 19  1  0
 18 20  2  0
 10 21  2  0
 11 22  2  0
  4  5  1  0
 12 13  2  0
 13 14  1  0
 14 15  2  0
 15 17  1  0
 17 16  2  0
 16 12  1  0
  1  2  2  0
  2  6  1  0
  6  7  2  0
  7  8  1  0
  8  3  2  0
  3  1  1  0
M  END

$$$$
