No_4720-gen_results/8p0m/2024-11-27-11-27-31/
     RDKit          3D

  9  8  0  0  0  0  0  0  0  0999 V2000
  -28.0162   -0.8135   28.8779 C   0  0  0  0  0  0  0  0  0  0  0  0
  -27.0636   -0.1189   28.6079 C   0  0  0  0  0  0  0  0  0  0  0  0
  -27.0425    0.2440   27.4277 F   0  0  0  0  0  0  0  0  0  0  0  0
  -28.4473   -0.2964   30.1832 F   0  0  0  0  0  0  0  0  0  0  0  0
  -25.7624   -0.0141   29.2821 C   0  0  0  0  0  0  0  0  0  0  0  0
  -25.6505   -0.2462   30.4350 C   0  0  0  0  0  0  0  0  0  0  0  0
  -24.3301   -0.0316   31.1136 C   0  0  0  0  0  0  0  0  0  0  0  0
  -23.2618    0.3656   30.2922 C   0  0  0  0  0  0  0  0  0  0  0  0
  -23.4358    0.5790   28.9786 C   0  0  0  0  0  0  0  0  0  0  0  0
  1  2  1  0
  2  3  1  0
  1  4  1  0
  2  5  1  0
  5  6  2  3
  6  7  1  0
  7  8  2  3
  8  9  1  0
M  END

$$$$
