No_4215-gen_results/8p0m/2024-11-27-11-27-31/
     RDKit          3D

 11 11  0  0  0  0  0  0  0  0999 V2000
  -28.0162   -0.8135   28.8779 C   0  0  0  0  0  0  0  0  0  0  0  0
  -28.4690   -0.7850   29.8287 C   0  0  0  0  0  0  0  0  0  0  0  0
  -26.9162   -1.5644   28.7368 F   0  0  0  0  0  0  0  0  0  0  0  0
  -28.1645    0.0261   27.7584 C   0  0  0  0  0  0  0  0  0  0  0  0
  -29.4034    0.7099   27.5940 C   0  0  0  0  0  0  0  0  0  0  0  0
  -28.2839   -1.5937   31.0176 C   0  0  0  0  0  0  0  0  0  0  0  0
  -29.4868    1.6269   26.7741 C   0  0  0  0  0  0  0  0  0  0  0  0
  -28.4660    1.8889   25.7105 C   0  0  0  0  0  0  0  0  0  0  0  0
  -27.2234    1.2604   25.8029 C   0  0  0  0  0  0  0  0  0  0  0  0
  -27.0630    0.3944   26.8449 C   0  0  0  0  0  0  0  0  0  0  0  0
  -27.5876   -2.7009   30.7025 C   0  0  0  0  0  0  0  0  0  0  0  0
  1  2  1  0
  1  3  1  0
  1  4  1  0
  2  6  1  0
  6 11  2  0
  4  5  2  0
  5  7  1  0
  7  8  2  0
  8  9  1  0
  9 10  2  0
 10  4  1  0
M  END

$$$$
