No_4003-gen_results/8p0m/2024-11-27-11-27-31/
     RDKit          3D

 19 21  0  0  0  0  0  0  0  0999 V2000
  -28.0162   -0.8135   28.8779 C   0  0  0  0  0  0  0  0  0  0  0  0
  -27.0636   -0.1190   28.6079 C   0  0  0  0  0  0  0  0  0  0  0  0
  -26.9287    1.1713   29.0083 C   0  0  0  0  0  0  0  0  0  0  0  0
  -25.7702    2.0341   28.6884 C   0  0  0  0  0  0  0  0  0  0  0  0
  -24.7141    1.4431   27.9188 C   0  0  0  0  0  0  0  0  0  0  0  0
  -24.8590    0.0783   27.5836 C   0  0  0  0  0  0  0  0  0  0  0  0
  -25.9647   -0.6606   27.9164 C   0  0  0  0  0  0  0  0  0  0  0  0
  -28.6995   -0.6441   30.0766 N   0  0  0  0  0  0  0  0  0  0  0  0
  -29.4717   -1.1161   30.6970 C   0  0  0  0  0  0  0  0  0  0  0  0
  -29.9696   -2.2055   30.2785 O   0  0  0  0  0  0  0  0  0  0  0  0
  -30.2911   -0.4174   31.7481 C   0  0  0  0  0  0  0  0  0  0  0  0
  -23.5392    2.1715   27.5651 C   0  0  0  0  0  0  0  0  0  0  0  0
  -23.2398    2.8151   28.2868 F   0  0  0  0  0  0  0  0  0  0  0  0
  -22.5915    1.1953   27.1347 F   0  0  0  0  0  0  0  0  0  0  0  0
  -23.8368    2.9054   26.4717 F   0  0  0  0  0  0  0  0  0  0  0  0
  -30.2751    0.7566   31.9846 C   0  0  0  0  0  0  0  0  0  0  0  0
  -29.0398    1.3843   31.5843 C   0  0  0  0  0  0  0  0  0  0  0  0
  -28.3138    0.8748   30.5285 C   0  0  0  0  0  0  0  0  0  0  0  0
  -27.7235    1.7395   30.0713 C   0  0  0  0  0  0  0  0  0  0  0  0
  1  2  1  0
  1  8  1  0
  8  9  1  0
  9 10  2  0
  9 11  1  0
  5 12  1  0
 12 13  1  0
 12 14  1  0
 12 15  1  0
 11 16  1  0
  8 18  1  0
 17 18  1  0
  3 19  1  0
 18 19  1  0
 16 17  1  0
  2  7  2  0
  7  6  1  0
  6  5  2  0
  5  4  1  0
  4  3  2  0
  3  2  1  0
M  END

$$$$
