No_4170-gen_results/8p0m/2024-11-27-11-27-31/
     RDKit          3D

 16 17  0  0  0  0  0  0  0  0999 V2000
  -28.0162   -0.8135   28.8779 C   0  0  0  0  0  0  0  0  0  0  0  0
  -27.0636   -0.1189   28.6079 C   0  0  0  0  0  0  0  0  0  0  0  0
  -27.0010    0.6913   27.4910 C   0  0  0  0  0  0  0  0  0  0  0  0
  -28.1373    0.7363   26.6350 C   0  0  0  0  0  0  0  0  0  0  0  0
  -29.2360    0.0765   27.0690 C   0  0  0  0  0  0  0  0  0  0  0  0
  -29.2177   -0.6429   28.1747 C   0  0  0  0  0  0  0  0  0  0  0  0
  -30.4152    0.1590   26.1820 C   0  0  0  0  0  0  0  0  0  0  0  0
  -30.3473    0.0802   24.9534 N   0  0  0  0  0  0  0  0  0  0  0  0
  -31.5704    0.1013   26.7354 O   0  0  0  0  0  0  0  0  0  0  0  0
  -25.7104   -0.2029   29.4236 C   0  0  0  0  0  0  0  0  0  0  0  0
  -25.0877    1.0304   29.7917 C   0  0  0  0  0  0  0  0  0  0  0  0
  -25.6488    2.2063   29.6979 C   0  0  0  0  0  0  0  0  0  0  0  0
  -24.9021    3.2072   30.1146 N   0  0  0  0  0  0  0  0  0  0  0  0
  -23.7128    1.5040   30.2448 C   0  0  0  0  0  0  0  0  0  0  0  0
  -23.7331    2.7327   30.4552 N   0  0  0  0  0  0  0  0  0  0  0  0
  -24.6886   -1.1704   28.7338 C   0  0  0  0  0  0  0  0  0  0  0  0
  5  7  1  0
  7  8  1  0
  7  9  2  0
  2 10  1  0
 10 11  2  3
 11 12  1  0
 12 13  2  0
 11 14  1  0
 13 15  1  0
 14 15  2  0
 10 16  1  0
  1  2  2  0
  2  3  1  0
  3  4  2  0
  4  5  1  0
  5  6  2  0
  6  1  1  0
M  END

$$$$
