No_4533-gen_results/8p0m/2024-11-27-11-27-31/
     RDKit          3D

 22 24  0  0  0  0  0  0  0  0999 V2000
  -28.0162   -0.8135   28.8779 C   0  0  0  0  0  0  0  0  0  0  0  0
  -27.0636   -0.1189   28.6079 C   0  0  0  0  0  0  0  0  0  0  0  0
  -26.9287    1.1713   29.0083 C   0  0  0  0  0  0  0  0  0  0  0  0
  -27.9560    1.7411   29.7840 C   0  0  0  0  0  0  0  0  0  0  0  0
  -29.0569   -0.3271   29.7466 C   0  0  0  0  0  0  0  0  0  0  0  0
  -28.9828    0.9722   30.1516 C   0  0  0  0  0  0  0  0  0  0  0  0
  -25.7249   -0.7275   27.6731 Cl  0  0  0  0  0  0  0  0  0  0  0  0
  -30.0821    1.5088   31.0097 C   0  0  0  0  0  0  0  0  0  0  0  0
  -31.0913    1.5959   30.8349 O   0  0  0  0  0  0  0  0  0  0  0  0
  -29.4857    1.7898   32.3527 O   0  0  0  0  0  0  0  0  0  0  0  0
  -29.9972    2.2115   33.2094 C   0  0  0  0  0  0  0  0  0  0  0  0
  -29.4427    1.9613   34.3291 C   0  0  0  0  0  0  0  0  0  0  0  0
  -31.0752    3.0593   33.1655 C   0  0  0  0  0  0  0  0  0  0  0  0
  -31.6588    3.6165   34.3396 C   0  0  0  0  0  0  0  0  0  0  0  0
  -29.9706    2.5407   35.6363 C   0  0  0  0  0  0  0  0  0  0  0  0
  -31.0707    3.3499   35.5554 C   0  0  0  0  0  0  0  0  0  0  0  0
  -31.6059    3.9231   36.7855 C   0  0  0  0  0  0  0  0  0  0  0  0
  -32.4441    4.0410   37.3838 C   0  0  0  0  0  0  0  0  0  0  0  0
  -32.6703    4.7195   38.6349 C   0  0  0  0  0  0  0  0  0  0  0  0
  -31.5692    5.2989   39.2261 C   0  0  0  0  0  0  0  0  0  0  0  0
  -30.3729    5.2416   38.6034 C   0  0  0  0  0  0  0  0  0  0  0  0
  -30.2368    4.6215   37.4155 C   0  0  0  0  0  0  0  0  0  0  0  0
  2  7  1  0
  6  8  1  0
  8  9  2  0
  8 10  1  0
 10 11  1  0
 16 17  1  0
 11 12  2  0
 12 15  1  0
 15 16  2  0
 16 14  1  0
 14 13  2  0
 13 11  1  0
  1  2  2  0
  2  3  1  0
  3  4  2  0
  4  6  1  0
  6  5  2  0
  5  1  1  0
 17 18  2  0
 18 19  1  0
 19 20  2  0
 20 21  1  0
 21 22  2  0
 22 17  1  0
M  END

$$$$
