No_4119-gen_results/8p0m/2024-11-27-11-27-31/
     RDKit          3D

 19 20  0  0  0  0  0  0  0  0999 V2000
  -28.0162   -0.8135   28.8779 C   0  0  0  0  0  0  0  0  0  0  0  0
  -27.0636   -0.1190   28.6079 C   0  0  0  0  0  0  0  0  0  0  0  0
  -26.9716    0.7139   27.5060 C   0  0  0  0  0  0  0  0  0  0  0  0
  -28.1053    0.7744   26.6421 C   0  0  0  0  0  0  0  0  0  0  0  0
  -29.2041    0.1179   27.0477 C   0  0  0  0  0  0  0  0  0  0  0  0
  -29.2127   -0.6088   28.1281 C   0  0  0  0  0  0  0  0  0  0  0  0
  -25.7068    1.7119   26.9844 Cl  0  0  0  0  0  0  0  0  0  0  0  0
  -30.3163    0.1969   26.2055 N   0  0  0  0  0  0  0  0  0  0  0  0
  -25.6708   -0.1478   29.4023 C   0  0  0  0  0  0  0  0  0  0  0  0
  -25.0395   -1.3017   29.5073 C   0  0  0  0  0  0  0  0  0  0  0  0
  -25.2297   -2.3319   29.2940 C   0  0  0  0  0  0  0  0  0  0  0  0
  -24.3142   -3.4875   29.3785 C   0  0  0  0  0  0  0  0  0  0  0  0
  -23.1954   -2.8382   29.8055 N   0  0  0  0  0  0  0  0  0  0  0  0
  -23.6385   -1.5027   29.8543 C   0  0  0  0  0  0  0  0  0  0  0  0
  -22.7340   -0.3922   30.1726 C   0  0  0  0  0  0  0  0  0  0  0  0
  -21.7738   -0.5473   30.7017 O   0  0  0  0  0  0  0  0  0  0  0  0
  -22.9851    0.8576   29.5232 O   0  0  0  0  0  0  0  0  0  0  0  0
  -31.4867   -0.1826   26.5512 C   0  0  0  0  0  0  0  0  0  0  0  0
  -32.4867   -0.2143   25.7278 C   0  0  0  0  0  0  0  0  0  0  0  0
  3  7  1  0
  5  8  1  0
  2  9  1  0
  9 10  1  0
 10 11  2  0
 11 12  1  0
 12 13  2  0
 10 14  1  0
 13 14  1  0
 14 15  1  0
 15 16  2  0
 15 17  1  0
  8 18  2  3
 18 19  1  0
  1  2  2  0
  2  3  1  0
  3  4  2  0
  4  5  1  0
  5  6  2  0
  6  1  1  0
M  END

$$$$
