No_443-gen_results/8p0m/2024-11-27-11-27-31/
     RDKit          3D

 14 14  0  0  0  0  0  0  0  0999 V2000
  -28.1229   -1.3353   28.4874 O   0  0  0  0  0  0  0  0  0  0  0  0
  -28.5208   -0.4363   29.0779 C   0  0  0  0  0  0  0  0  0  0  0  0
  -27.6655    0.1129   30.0346 C   0  0  0  0  0  0  0  0  0  0  0  0
  -29.5662    0.3302   28.6099 N   0  0  0  0  0  0  0  0  0  0  0  0
  -26.9528   -0.6475   30.7643 C   0  0  0  0  0  0  0  0  0  0  0  0
  -30.0329    1.5087   29.1443 C   0  0  0  0  0  0  0  0  0  0  0  0
  -29.9496    2.5000   28.7077 C   0  0  0  0  0  0  0  0  0  0  0  0
  -30.4721    3.8057   29.2853 C   0  0  0  0  0  0  0  0  0  0  0  0
  -31.0825    3.6425   30.5284 C   0  0  0  0  0  0  0  0  0  0  0  0
  -30.7447    1.4169   30.4856 C   0  0  0  0  0  0  0  0  0  0  0  0
  -31.2218    2.4449   31.0853 C   0  0  0  0  0  0  0  0  0  0  0  0
  -26.0730   -1.4548   30.1479 C   0  0  0  0  0  0  0  0  0  0  0  0
  -26.5972   -2.3962   29.7398 F   0  0  0  0  0  0  0  0  0  0  0  0
  -25.0656   -1.9331   31.1004 F   0  0  0  0  0  0  0  0  0  0  0  0
  1  2  2  0
  2  3  1  0
  2  4  1  0
  3  5  1  0
  4  6  1  0
  5 12  2  3
 12 13  1  0
 12 14  1  0
  6  7  2  0
  7  8  1  0
  8  9  2  0
  9 11  1  0
 11 10  2  0
 10  6  1  0
M  END

$$$$
