No_4324-gen_results/8p0m/2024-11-27-11-27-31/
     RDKit          3D

 13 13  0  0  0  0  0  0  0  0999 V2000
  -28.0162   -0.8135   28.8779 C   0  0  0  0  0  0  0  0  0  0  0  0
  -28.4690   -0.7850   29.8287 C   0  0  0  0  0  0  0  0  0  0  0  0
  -27.1356    0.2359   28.5352 C   0  0  0  0  0  0  0  0  0  0  0  0
  -26.8745    1.2825   29.3982 C   0  0  0  0  0  0  0  0  0  0  0  0
  -27.5070    1.2380   30.6295 C   0  0  0  0  0  0  0  0  0  0  0  0
  -28.3293    0.1745   30.9350 C   0  0  0  0  0  0  0  0  0  0  0  0
  -26.4077    0.3070   27.2259 C   0  0  0  0  0  0  0  0  0  0  0  0
  -25.4085   -0.3655   27.2512 F   0  0  0  0  0  0  0  0  0  0  0  0
  -27.2243   -0.1905   26.2445 F   0  0  0  0  0  0  0  0  0  0  0  0
  -26.0096    1.5373   26.8208 F   0  0  0  0  0  0  0  0  0  0  0  0
  -29.3821   -2.0258   30.3317 C   0  0  0  0  0  0  0  0  0  0  0  0
  -29.7968   -1.9849   31.4709 O   0  0  0  0  0  0  0  0  0  0  0  0
  -29.1383   -3.1670   29.8368 O   0  0  0  0  0  0  0  0  0  0  0  0
  3  7  1  0
  7  8  1  0
  7  9  1  0
  7 10  1  0
  2 11  1  0
 11 12  2  0
 11 13  1  0
  1  2  2  0
  2  6  1  0
  6  5  2  0
  5  4  1  0
  4  3  2  0
  3  1  1  0
M  END

$$$$
