No_4975-gen_results/8p0m/2024-11-27-11-27-31/
     RDKit          3D

 19 20  0  0  0  0  0  0  0  0999 V2000
  -28.0162   -0.8135   28.8779 C   0  0  0  0  0  0  0  0  0  0  0  0
  -28.4690   -0.7850   29.8287 C   0  0  0  0  0  0  0  0  0  0  0  0
  -27.0871    0.2903   28.6377 C   0  0  0  0  0  0  0  0  0  0  0  0
  -26.8317    1.2487   29.5869 C   0  0  0  0  0  0  0  0  0  0  0  0
  -28.3914    0.0801   31.0065 C   0  0  0  0  0  0  0  0  0  0  0  0
  -27.4940    1.1521   30.7841 C   0  0  0  0  0  0  0  0  0  0  0  0
  -26.3172    0.3994   27.3653 C   0  0  0  0  0  0  0  0  0  0  0  0
  -26.8815    0.9711   26.3721 C   0  0  0  0  0  0  0  0  0  0  0  0
  -26.1464    0.9703   25.0973 C   0  0  0  0  0  0  0  0  0  0  0  0
  -24.7793    0.5609   25.1117 C   0  0  0  0  0  0  0  0  0  0  0  0
  -25.0074   -0.1159   27.2986 C   0  0  0  0  0  0  0  0  0  0  0  0
  -24.2881    0.0057   26.2234 C   0  0  0  0  0  0  0  0  0  0  0  0
  -24.3927   -0.7309   28.5286 C   0  0  0  0  0  0  0  0  0  0  0  0
  -23.5733   -1.2064   29.0224 C   0  0  0  0  0  0  0  0  0  0  0  0
  -22.4103   -1.4745   29.7716 C   0  0  0  0  0  0  0  0  0  0  0  0
  -28.4389    1.6940   26.1861 Cl  0  0  0  0  0  0  0  0  0  0  0  0
  -29.5066   -1.9831   30.2272 C   0  0  0  0  0  0  0  0  0  0  0  0
  -30.1355   -1.9041   31.2021 O   0  0  0  0  0  0  0  0  0  0  0  0
  -29.4956   -2.9554   29.4710 O   0  0  0  0  0  0  0  0  0  0  0  0
  3  7  1  0
 11 13  1  0
 13 14  3  0
 14 15  1  0
  8 16  1  0
  2 17  1  0
 17 18  2  0
 17 19  1  0
  7  8  2  0
  8  9  1  0
  9 10  2  0
 10 12  1  0
 12 11  2  0
 11  7  1  0
  1  2  2  0
  2  5  1  0
  5  6  2  0
  6  4  1  0
  4  3  2  0
  3  1  1  0
M  END

$$$$
