No_408-gen_results/8p0m/2024-11-27-11-27-31/
     RDKit          3D

 15 17  0  0  0  0  0  0  0  0999 V2000
  -28.0162   -0.8135   28.8779 C   0  0  0  0  0  0  0  0  0  0  0  0
  -27.0636   -0.1189   28.6079 C   0  0  0  0  0  0  0  0  0  0  0  0
  -25.7647   -0.3897   29.0360 C   0  0  0  0  0  0  0  0  0  0  0  0
  -25.5296   -1.5302   29.9014 C   0  0  0  0  0  0  0  0  0  0  0  0
  -26.6577   -2.2915   30.2035 C   0  0  0  0  0  0  0  0  0  0  0  0
  -27.8548   -1.9555   29.7630 C   0  0  0  0  0  0  0  0  0  0  0  0
  -24.5349    0.4128   28.7431 C   0  0  0  0  0  0  0  0  0  0  0  0
  -23.3062    0.0366   29.0393 C   0  0  0  0  0  0  0  0  0  0  0  0
  -22.1759    0.8277   28.6836 C   0  0  0  0  0  0  0  0  0  0  0  0
  -22.3552    1.8290   27.6875 C   0  0  0  0  0  0  0  0  0  0  0  0
  -24.5941    1.4954   27.7678 C   0  0  0  0  0  0  0  0  0  0  0  0
  -25.9295    1.8495   27.2614 C   0  0  0  0  0  0  0  0  0  0  0  0
  -23.5227    2.1987   27.3000 C   0  0  0  0  0  0  0  0  0  0  0  0
  -27.1529    1.0565   27.6429 C   0  0  0  0  0  0  0  0  0  0  0  0
  -28.3888    1.3726   27.0577 C   0  0  0  0  0  0  0  0  0  0  0  0
 14 15  1  0
  1  2  2  0
  3  4  2  0
  4  5  1  0
  5  6  2  0
  6  1  1  0
  2  3  1  0
  3  7  1  0
 11 12  1  0
 12 14  2  0
 14  2  1  0
  7  8  2  0
  8  9  1  0
  9 10  2  0
 10 13  1  0
 13 11  2  0
 11  7  1  0
M  END

$$$$
