No_4083-gen_results/8p0m/2024-11-27-11-27-31/
     RDKit          3D

 17 17  0  0  0  0  0  0  0  0999 V2000
  -28.1229   -1.3353   28.4874 O   0  0  0  0  0  0  0  0  0  0  0  0
  -27.0637   -0.8242   28.8687 C   0  0  0  0  0  0  0  0  0  0  0  0
  -26.4017   -0.0623   28.6224 C   0  0  0  0  0  0  0  0  0  0  0  0
  -26.7496   -1.3992   30.2054 F   0  0  0  0  0  0  0  0  0  0  0  0
  -25.9367    0.9000   28.5323 C   0  0  0  0  0  0  0  0  0  0  0  0
  -25.0567    1.9605   27.9977 C   0  0  0  0  0  0  0  0  0  0  0  0
  -23.9644    2.5044   27.7267 C   0  0  0  0  0  0  0  0  0  0  0  0
  -22.7117    2.4425   28.2367 C   0  0  0  0  0  0  0  0  0  0  0  0
  -24.2504    3.4559   26.5381 C   0  0  0  0  0  0  0  0  0  0  0  0
  -21.7185    1.6577   27.3709 C   0  0  0  0  0  0  0  0  0  0  0  0
  -21.2928    0.4237   28.0557 C   0  0  0  0  0  0  0  0  0  0  0  0
  -22.2943   -0.1914   28.8870 C   0  0  0  0  0  0  0  0  0  0  0  0
  -22.1757    0.0817   30.2595 C   0  0  0  0  0  0  0  0  0  0  0  0
  -23.1700   -0.6772   31.1490 C   0  0  0  0  0  0  0  0  0  0  0  0
  -23.7783   -1.7987   30.5934 C   0  0  0  0  0  0  0  0  0  0  0  0
  -23.6210   -2.1916   29.2680 C   0  0  0  0  0  0  0  0  0  0  0  0
  -22.8599   -1.3889   28.4366 C   0  0  0  0  0  0  0  0  0  0  0  0
  1  2  2  0
  2  3  1  0
  2  4  1  0
  3  5  3  0
  5  6  1  0
  6  7  2  3
  7  8  1  0
  7  9  1  0
  8 10  1  0
 10 11  1  0
 11 12  1  0
 12 13  2  0
 13 14  1  0
 14 15  2  0
 15 16  1  0
 16 17  2  0
 17 12  1  0
M  END

$$$$
