No_4164-gen_results/8p0m/2024-11-27-11-27-31/
     RDKit          3D

 19 21  0  0  0  0  0  0  0  0999 V2000
  -28.0162   -0.8135   28.8779 C   0  0  0  0  0  0  0  0  0  0  0  0
  -27.0636   -0.1189   28.6079 C   0  0  0  0  0  0  0  0  0  0  0  0
  -25.8176   -0.3427   29.0487 N   0  0  0  0  0  0  0  0  0  0  0  0
  -24.6757    0.3814   28.7496 C   0  0  0  0  0  0  0  0  0  0  0  0
  -24.7608    1.3095   27.7159 C   0  0  0  0  0  0  0  0  0  0  0  0
  -27.1776    0.9693   27.6449 C   0  0  0  0  0  0  0  0  0  0  0  0
  -26.0057    1.6898   27.2484 C   0  0  0  0  0  0  0  0  0  0  0  0
  -29.2617   -0.1657   29.3386 C   0  0  0  0  0  0  0  0  0  0  0  0
  -29.5447   -0.1692   30.5700 C   0  0  0  0  0  0  0  0  0  0  0  0
  -30.1411    0.1992   28.2897 C   0  0  0  0  0  0  0  0  0  0  0  0
  -31.4496    0.5903   28.6043 C   0  0  0  0  0  0  0  0  0  0  0  0
  -30.8681    0.3740   30.9698 C   0  0  0  0  0  0  0  0  0  0  0  0
  -31.7625    0.7400   29.9778 C   0  0  0  0  0  0  0  0  0  0  0  0
  -23.5645    2.0863   27.3978 C   0  0  0  0  0  0  0  0  0  0  0  0
  -23.6198    3.2197   26.7298 C   0  0  0  0  0  0  0  0  0  0  0  0
  -22.2539    1.5711   27.7634 C   0  0  0  0  0  0  0  0  0  0  0  0
  -21.3177    1.4195   28.1246 N   0  0  0  0  0  0  0  0  0  0  0  0
  -26.0966    2.8193   26.3645 C   0  0  0  0  0  0  0  0  0  0  0  0
  -24.8901    3.5719   26.0992 C   0  0  0  0  0  0  0  0  0  0  0  0
  1  2  1  0
  1  8  1  0
 14 16  1  0
 16 17  3  0
  2  3  2  0
  3  4  1  0
  4  5  2  0
  7  6  2  0
  6  2  1  0
  8  9  2  0
  9 12  1  0
 12 13  2  0
 13 11  1  0
 11 10  2  0
 10  8  1  0
  5  7  1  0
  7 18  1  0
 18 19  2  0
 19 15  1  0
 15 14  2  0
 14  5  1  0
M  END

$$$$
