No_438-gen_results/8p0m/2024-11-27-11-27-31/
     RDKit          3D

 21 22  0  0  0  0  0  0  0  0999 V2000
  -28.0162   -0.8135   28.8779 C   0  0  0  0  0  0  0  0  0  0  0  0
  -27.0636   -0.1189   28.6079 C   0  0  0  0  0  0  0  0  0  0  0  0
  -26.9287    1.1713   29.0083 C   0  0  0  0  0  0  0  0  0  0  0  0
  -25.7702    2.0341   28.6884 C   0  0  0  0  0  0  0  0  0  0  0  0
  -24.7141    1.4431   27.9188 C   0  0  0  0  0  0  0  0  0  0  0  0
  -24.8590    0.0783   27.5836 C   0  0  0  0  0  0  0  0  0  0  0  0
  -25.9647   -0.6606   27.9164 C   0  0  0  0  0  0  0  0  0  0  0  0
  -27.9821   -1.6367   30.0748 N   0  0  0  0  0  0  0  0  0  0  0  0
  -29.2163   -0.4132   28.6627 O   0  0  0  0  0  0  0  0  0  0  0  0
  -29.0156   -2.4825   30.5856 C   0  0  0  0  0  0  0  0  0  0  0  0
  -23.5339    2.1607   27.5674 C   0  0  0  0  0  0  0  0  0  0  0  0
  -23.2884    2.9266   28.1743 F   0  0  0  0  0  0  0  0  0  0  0  0
  -23.6580    2.5733   26.2176 F   0  0  0  0  0  0  0  0  0  0  0  0
  -22.4533    1.2515   27.4171 F   0  0  0  0  0  0  0  0  0  0  0  0
  -26.6627   -2.0594   30.6233 C   0  0  0  0  0  0  0  0  0  0  0  0
  -29.8331   -2.8882   30.0187 C   0  0  0  0  0  0  0  0  0  0  0  0
  -30.7896   -3.9104   30.6119 C   0  0  0  0  0  0  0  0  0  0  0  0
  -31.7987   -4.5302   29.8585 C   0  0  0  0  0  0  0  0  0  0  0  0
  -31.9487   -4.1230   28.5247 C   0  0  0  0  0  0  0  0  0  0  0  0
  -31.3186   -3.0637   28.0484 C   0  0  0  0  0  0  0  0  0  0  0  0
  -30.2659   -2.4534   28.7334 C   0  0  0  0  0  0  0  0  0  0  0  0
  1  2  1  0
  1  8  1  0
  1  9  2  0
  8 10  1  0
  5 11  1  0
 11 12  1  0
 11 13  1  0
 11 14  1  0
  8 15  1  0
 10 16  1  0
  2  3  2  0
  3  4  1  0
  4  5  2  0
  5  6  1  0
  6  7  2  0
  7  2  1  0
 16 17  2  0
 17 18  1  0
 18 19  2  0
 19 20  1  0
 20 21  2  0
 21 16  1  0
M  END

$$$$
