No_4385-gen_results/8p0m/2024-11-27-11-27-31/
     RDKit          3D

 22 24  0  0  0  0  0  0  0  0999 V2000
  -28.0162   -0.8135   28.8779 C   0  0  0  0  0  0  0  0  0  0  0  0
  -28.4690   -0.7850   29.8287 C   0  0  0  0  0  0  0  0  0  0  0  0
  -28.1816    0.4277   28.1134 C   0  0  0  0  0  0  0  0  0  0  0  0
  -27.4498    0.6435   26.8500 C   0  0  0  0  0  0  0  0  0  0  0  0
  -26.1815    0.0357   26.7145 C   0  0  0  0  0  0  0  0  0  0  0  0
  -25.7530   -0.9101   27.6815 C   0  0  0  0  0  0  0  0  0  0  0  0
  -26.5502   -1.2250   28.7228 C   0  0  0  0  0  0  0  0  0  0  0  0
  -28.3925   -2.0077   30.6416 N   0  0  0  0  0  0  0  0  0  0  0  0
  -29.4594   -0.0995   30.3385 O   0  0  0  0  0  0  0  0  0  0  0  0
  -29.2521   -2.4213   31.7905 C   0  0  0  0  0  0  0  0  0  0  0  0
  -27.3546   -2.9430   30.3933 C   0  0  0  0  0  0  0  0  0  0  0  0
  -26.1854   -2.4885   29.4910 C   0  0  0  0  0  0  0  0  0  0  0  0
  -27.7754    1.6432   25.8723 C   0  0  0  0  0  0  0  0  0  0  0  0
  -27.2823    2.8679   26.2296 C   0  0  0  0  0  0  0  0  0  0  0  0
  -28.6235    1.3531   24.8417 C   0  0  0  0  0  0  0  0  0  0  0  0
  -29.9599    1.1999   25.1022 C   0  0  0  0  0  0  0  0  0  0  0  0
  -30.7891    0.7738   24.0502 C   0  0  0  0  0  0  0  0  0  0  0  0
  -32.1462    0.5429   24.2843 C   0  0  0  0  0  0  0  0  0  0  0  0
  -32.6853    0.6368   25.5840 C   0  0  0  0  0  0  0  0  0  0  0  0
  -31.8507    0.9785   26.6455 C   0  0  0  0  0  0  0  0  0  0  0  0
  -30.4928    1.2303   26.4032 C   0  0  0  0  0  0  0  0  0  0  0  0
  -24.9865   -2.1554   30.3307 C   0  0  0  0  0  0  0  0  0  0  0  0
  1  2  1  0
  2  8  1  0
  2  9  2  0
  8 10  1  0
  8 11  1  0
  7 12  1  0
 11 12  1  0
  4 13  1  0
 13 14  1  0
 13 15  1  0
 12 22  1  0
 15 16  1  0
 16 17  2  0
 17 18  1  0
 18 19  2  0
 19 20  1  0
 20 21  2  0
 21 16  1  0
  1  3  2  0
  3  4  1  0
  4  5  2  0
  5  6  1  0
  6  7  2  0
  7  1  1  0
M  END

$$$$
