No_4373-gen_results/8p0m/2024-11-27-11-27-31/
     RDKit          3D

 26 27  0  0  0  0  0  0  0  0999 V2000
  -28.0162   -0.8135   28.8779 C   0  0  0  0  0  0  0  0  0  0  0  0
  -27.0636   -0.1189   28.6079 C   0  0  0  0  0  0  0  0  0  0  0  0
  -25.7923   -0.4302   29.0761 C   0  0  0  0  0  0  0  0  0  0  0  0
  -25.5756   -1.5654   29.9363 C   0  0  0  0  0  0  0  0  0  0  0  0
  -26.7354   -2.3004   30.2173 C   0  0  0  0  0  0  0  0  0  0  0  0
  -27.9184   -1.9537   29.7629 C   0  0  0  0  0  0  0  0  0  0  0  0
  -27.1057    1.1023   27.7593 C   0  0  0  0  0  0  0  0  0  0  0  0
  -26.8548    2.1259   28.0082 N   0  0  0  0  0  0  0  0  0  0  0  0
  -27.7732    0.7915   26.6027 N   0  0  0  0  0  0  0  0  0  0  0  0
  -26.1333    2.5798   29.2058 C   0  0  0  0  0  0  0  0  0  0  0  0
  -24.8706    2.7305   29.1631 C   0  0  0  0  0  0  0  0  0  0  0  0
  -24.1922    3.0629   28.0801 N   0  0  0  0  0  0  0  0  0  0  0  0
  -24.1443    2.8455   30.2676 N   0  0  0  0  0  0  0  0  0  0  0  0
  -26.9214    2.6929   30.3945 C   0  0  0  0  0  0  0  0  0  0  0  0
  -27.3711    3.5275   30.7329 C   0  0  0  0  0  0  0  0  0  0  0  0
  -28.1472    4.0522   31.3247 C   0  0  0  0  0  0  0  0  0  0  0  0
  -29.1952    4.6214   31.7538 C   0  0  0  0  0  0  0  0  0  0  0  0
  -30.3422    4.0435   32.0285 C   0  0  0  0  0  0  0  0  0  0  0  0
  -29.0746    6.1113   32.0723 C   0  0  0  0  0  0  0  0  0  0  0  0
  -28.0158    6.5911   32.1188 F   0  0  0  0  0  0  0  0  0  0  0  0
  -29.8653    6.4552   33.3105 C   0  0  0  0  0  0  0  0  0  0  0  0
  -31.2610    6.0230   33.3332 C   0  0  0  0  0  0  0  0  0  0  0  0
  -30.6229    2.7359   31.5074 C   0  0  0  0  0  0  0  0  0  0  0  0
  -31.4055    4.6567   32.8350 C   0  0  0  0  0  0  0  0  0  0  0  0
  -27.8580    2.9939   32.5296 C   0  0  0  0  0  0  0  0  0  0  0  0
  -26.9631    4.8943   30.0509 C   0  0  0  0  0  0  0  0  0  0  0  0
  2  7  1  0
  7  8  2  3
  7  9  1  0
  8 10  1  0
 10 11  1  0
 11 12  1  0
 11 13  2  0
 10 14  1  0
 14 15  1  0
 15 16  2  3
 16 17  1  0
 19 20  1  0
 18 23  1  0
 16 25  1  0
 15 26  1  0
  1  2  2  0
  2  3  1  0
  3  4  2  0
  4  5  1  0
  5  6  2  0
  6  1  1  0
 17 18  2  0
 18 24  1  0
 24 22  2  0
 22 21  1  0
 21 19  2  0
 19 17  1  0
M  END

$$$$
