No_4757-gen_results/8p0m/2024-11-27-11-27-31/
     RDKit          3D

 35 37  0  0  0  0  0  0  0  0999 V2000
  -28.0162   -0.8135   28.8779 C   0  0  0  0  0  0  0  0  0  0  0  0
  -28.4690   -0.7850   29.8287 C   0  0  0  0  0  0  0  0  0  0  0  0
  -26.5455   -0.8762   28.8500 C   0  0  0  0  0  0  0  0  0  0  0  0
  -25.8041   -1.0324   30.0571 C   0  0  0  0  0  0  0  0  0  0  0  0
  -27.9437   -0.9869   31.2075 C   0  0  0  0  0  0  0  0  0  0  0  0
  -26.5825   -1.0386   31.2231 C   0  0  0  0  0  0  0  0  0  0  0  0
  -30.3060   -0.8044   29.9704 Cl  0  0  0  0  0  0  0  0  0  0  0  0
  -24.3683   -1.1026   30.0591 C   0  0  0  0  0  0  0  0  0  0  0  0
  -23.6005   -0.5434   29.0827 C   0  0  0  0  0  0  0  0  0  0  0  0
  -23.7760    0.5825   28.3977 C   0  0  0  0  0  0  0  0  0  0  0  0
  -22.7827    1.1577   27.5996 C   0  0  0  0  0  0  0  0  0  0  0  0
  -21.9207    1.7347   27.8772 C   0  0  0  0  0  0  0  0  0  0  0  0
  -21.0485    1.1048   28.9883 C   0  0  0  0  0  0  0  0  0  0  0  0
  -21.3574   -0.1521   29.6393 C   0  0  0  0  0  0  0  0  0  0  0  0
  -22.2008   -0.9968   29.2205 C   0  0  0  0  0  0  0  0  0  0  0  0
  -23.9407   -1.7450   31.1112 O   0  0  0  0  0  0  0  0  0  0  0  0
  -23.3690    1.6182   26.2524 C   0  0  0  0  0  0  0  0  0  0  0  0
  -22.8356    2.2961   25.5239 O   0  0  0  0  0  0  0  0  0  0  0  0
  -24.7251    1.3388   25.9650 N   0  0  0  0  0  0  0  0  0  0  0  0
  -25.3288    1.2267   24.7073 C   0  0  0  0  0  0  0  0  0  0  0  0
  -26.7310    0.8292   24.9784 C   0  0  0  0  0  0  0  0  0  0  0  0
  -27.5219    1.5870   25.6134 C   0  0  0  0  0  0  0  0  0  0  0  0
  -28.8388    1.2137   25.7467 C   0  0  0  0  0  0  0  0  0  0  0  0
  -29.3698    0.2092   25.0002 C   0  0  0  0  0  0  0  0  0  0  0  0
  -28.5701   -0.5572   24.1929 C   0  0  0  0  0  0  0  0  0  0  0  0
  -27.2266   -0.2385   24.1458 C   0  0  0  0  0  0  0  0  0  0  0  0
  -30.8146   -0.1375   25.0555 C   0  0  0  0  0  0  0  0  0  0  0  0
  -31.2919   -1.1515   24.6680 O   0  0  0  0  0  0  0  0  0  0  0  0
  -31.7133    0.7168   25.7480 N   0  0  0  0  0  0  0  0  0  0  0  0
  -33.1007    0.4252   25.8322 C   0  0  0  0  0  0  0  0  0  0  0  0
  -33.8546    1.4149   26.4704 C   0  0  0  0  0  0  0  0  0  0  0  0
  -34.9105    1.3299   26.9450 C   0  0  0  0  0  0  0  0  0  0  0  0
  -35.6020    2.3468   27.6678 C   0  0  0  0  0  0  0  0  0  0  0  0
  -34.9932    3.6000   27.7578 C   0  0  0  0  0  0  0  0  0  0  0  0
  -33.7520    3.7984   27.1975 C   0  0  0  0  0  0  0  0  0  0  0  0
  2  7  1  0
  4  8  1  0
  8  9  1  0
  9 10  2  0
 10 11  1  0
 11 12  2  0
 12 13  1  0
 13 14  2  0
  9 15  1  0
 14 15  1  0
  8 16  2  0
 11 17  1  0
 17 18  2  0
 17 19  1  0
 19 20  1  0
 20 21  1  0
 24 27  1  0
 27 28  2  0
 27 29  1  0
 29 30  1  0
 30 31  1  0
 31 32  2  3
 32 33  1  0
 33 34  2  3
 34 35  1  0
  1  2  2  0
  2  5  1  0
  5  6  2  0
  6  4  1  0
  4  3  2  0
  3  1  1  0
 21 22  2  0
 22 23  1  0
 23 24  2  0
 24 25  1  0
 25 26  2  0
 26 21  1  0
M  END

$$$$
