No_4585-gen_results/8p0m/2024-11-27-11-27-31/
     RDKit          3D

 16 17  0  0  0  0  0  0  0  0999 V2000
  -28.0162   -0.8135   28.8779 C   0  0  0  0  0  0  0  0  0  0  0  0
  -28.4690   -0.7850   29.8287 C   0  0  0  0  0  0  0  0  0  0  0  0
  -28.1960    0.3478   28.0550 C   0  0  0  0  0  0  0  0  0  0  0  0
  -29.0191    1.3501   28.3782 C   0  0  0  0  0  0  0  0  0  0  0  0
  -29.1993    2.4568   27.5396 C   0  0  0  0  0  0  0  0  0  0  0  0
  -29.3831    0.1511   30.4352 C   0  0  0  0  0  0  0  0  0  0  0  0
  -29.6005    1.2796   29.6234 C   0  0  0  0  0  0  0  0  0  0  0  0
  -28.9183    3.6276   27.9282 C   0  0  0  0  0  0  0  0  0  0  0  0
  -28.3011    3.8247   29.2370 C   0  0  0  0  0  0  0  0  0  0  0  0
  -28.4248    5.1904   29.7243 C   0  0  0  0  0  0  0  0  0  0  0  0
  -27.3782    0.2482   26.9391 F   0  0  0  0  0  0  0  0  0  0  0  0
  -27.6592    5.4523   30.9396 C   0  0  0  0  0  0  0  0  0  0  0  0
  -26.9126    4.3998   31.6027 C   0  0  0  0  0  0  0  0  0  0  0  0
  -26.8298    3.1490   30.9988 C   0  0  0  0  0  0  0  0  0  0  0  0
  -27.4348    2.9437   29.8048 C   0  0  0  0  0  0  0  0  0  0  0  0
  -29.8071    2.1178   26.2574 C   0  0  0  0  0  0  0  0  0  0  0  0
  4  5  1  0
  5  8  2  3
  8  9  1  0
  3 11  1  0
  5 16  1  0
  1  2  2  0
  2  6  1  0
  6  7  2  0
  7  4  1  0
  4  3  2  0
  3  1  1  0
  9 10  2  0
 10 12  1  0
 12 13  2  0
 13 14  1  0
 14 15  2  0
 15  9  1  0
M  END

$$$$
