No_4249-gen_results/8p0m/2024-11-27-11-27-31/
     RDKit          3D

 21 23  0  0  0  0  0  0  0  0999 V2000
  -28.0162   -0.8135   28.8779 C   0  0  0  0  0  0  0  0  0  0  0  0
  -28.4690   -0.7850   29.8287 C   0  0  0  0  0  0  0  0  0  0  0  0
  -26.5455   -0.8762   28.8500 C   0  0  0  0  0  0  0  0  0  0  0  0
  -25.8041   -1.0324   30.0571 C   0  0  0  0  0  0  0  0  0  0  0  0
  -27.9437   -0.9869   31.2075 C   0  0  0  0  0  0  0  0  0  0  0  0
  -26.5825   -1.0386   31.2231 C   0  0  0  0  0  0  0  0  0  0  0  0
  -29.9648   -0.7353   29.8902 N   0  0  0  0  0  0  0  0  0  0  0  0
  -30.6477    0.3169   30.2682 C   0  0  0  0  0  0  0  0  0  0  0  0
  -32.0378    0.2480   30.1884 C   0  0  0  0  0  0  0  0  0  0  0  0
  -30.7083   -1.8408   29.5555 C   0  0  0  0  0  0  0  0  0  0  0  0
  -32.0279   -1.9635   29.4003 C   0  0  0  0  0  0  0  0  0  0  0  0
  -32.6953   -0.8121   29.7815 C   0  0  0  0  0  0  0  0  0  0  0  0
  -24.3722   -1.0693   30.0552 C   0  0  0  0  0  0  0  0  0  0  0  0
  -23.7298    0.2147   30.0442 C   0  0  0  0  0  0  0  0  0  0  0  0
  -23.4473    0.8594   28.8379 C   0  0  0  0  0  0  0  0  0  0  0  0
  -22.1743    0.8342   28.4630 C   0  0  0  0  0  0  0  0  0  0  0  0
  -21.8583    1.5580   27.3407 C   0  0  0  0  0  0  0  0  0  0  0  0
  -22.8448    2.2332   26.5942 C   0  0  0  0  0  0  0  0  0  0  0  0
  -24.3188    1.6607   28.1024 C   0  0  0  0  0  0  0  0  0  0  0  0
  -24.0253    2.3323   27.0553 C   0  0  0  0  0  0  0  0  0  0  0  0
  -23.6800    0.9246   31.3268 C   0  0  0  0  0  0  0  0  0  0  0  0
  2  7  1  0
  7  8  1  0
  7 10  1  0
  9 12  1  0
 11 12  1  0
  4 13  1  0
 13 14  1  0
 14 15  1  0
 14 21  1  0
  8  9  1  0
 11 10  1  0
 15 16  2  0
 16 17  1  0
 17 18  2  0
 18 20  1  0
 20 19  2  0
 19 15  1  0
  1  2  2  0
  2  5  1  0
  5  6  2  0
  6  4  1  0
  4  3  2  0
  3  1  1  0
M  END

$$$$
