No_4726-gen_results/8p0m/2024-11-27-11-27-31/
     RDKit          3D

 12 13  0  0  0  0  0  0  0  0999 V2000
  -28.0162   -0.8135   28.8779 C   0  0  0  0  0  0  0  0  0  0  0  0
  -27.0636   -0.1190   28.6079 C   0  0  0  0  0  0  0  0  0  0  0  0
  -26.8756    1.1325   28.9134 C   0  0  0  0  0  0  0  0  0  0  0  0
  -25.6883    1.9515   28.5672 C   0  0  0  0  0  0  0  0  0  0  0  0
  -24.6394    1.2834   27.8753 C   0  0  0  0  0  0  0  0  0  0  0  0
  -24.8068   -0.0513   27.6040 C   0  0  0  0  0  0  0  0  0  0  0  0
  -25.9089   -0.7712   28.0933 C   0  0  0  0  0  0  0  0  0  0  0  0
  -29.2118   -0.0934   29.0938 C   0  0  0  0  0  0  0  0  0  0  0  0
  -29.2027    1.2404   29.3550 C   0  0  0  0  0  0  0  0  0  0  0  0
  -28.0373    1.9378   29.1358 C   0  0  0  0  0  0  0  0  0  0  0  0
  -23.3616    1.8812   27.5628 C   0  0  0  0  0  0  0  0  0  0  0  0
  -22.1333    2.0494   27.8543 N   0  0  0  0  0  0  0  0  0  0  0  0
  5 11  1  0
 11 12  3  0
  3  4  1  0
  4  5  2  0
  5  6  1  0
  6  7  2  0
  7  2  1  0
  1  2  2  0
  2  3  1  0
  3 10  2  0
 10  9  1  0
  9  8  2  0
  8  1  1  0
M  END

$$$$
