No_4857-gen_results/8p0m/2024-11-27-11-27-31/
     RDKit          3D

 13 13  0  0  0  0  0  0  0  0999 V2000
  -28.0162   -0.8135   28.8779 C   0  0  0  0  0  0  0  0  0  0  0  0
  -28.4690   -0.7850   29.8287 C   0  0  0  0  0  0  0  0  0  0  0  0
  -27.0871    0.2903   28.6377 C   0  0  0  0  0  0  0  0  0  0  0  0
  -26.2516    0.4114   27.4223 C   0  0  0  0  0  0  0  0  0  0  0  0
  -28.3913    0.1041   30.9805 C   0  0  0  0  0  0  0  0  0  0  0  0
  -27.5332    1.1666   30.7866 C   0  0  0  0  0  0  0  0  0  0  0  0
  -26.8281    1.2557   29.6454 C   0  0  0  0  0  0  0  0  0  0  0  0
  -26.0545    1.5503   27.3137 F   0  0  0  0  0  0  0  0  0  0  0  0
  -27.0176    0.0242   26.3744 F   0  0  0  0  0  0  0  0  0  0  0  0
  -25.1462   -0.3469   27.5023 F   0  0  0  0  0  0  0  0  0  0  0  0
  -29.4892   -1.9101   30.3615 C   0  0  0  0  0  0  0  0  0  0  0  0
  -29.4673   -2.5204   31.2369 O   0  0  0  0  0  0  0  0  0  0  0  0
  -30.4109   -2.1103   29.3914 O   0  0  0  0  0  0  0  0  0  0  0  0
  3  4  1  0
  4  8  1  0
  4  9  1  0
  4 10  1  0
  2 11  1  0
 11 12  2  0
 11 13  1  0
  1  2  2  0
  2  5  1  0
  5  6  2  0
  6  7  1  0
  7  3  2  0
  3  1  1  0
M  END

$$$$
