No_4305-gen_results/8p0m/2024-11-27-11-27-31/
     RDKit          3D

 20 21  0  0  0  0  0  0  0  0999 V2000
  -28.1229   -1.3353   28.4874 O   0  0  0  0  0  0  0  0  0  0  0  0
  -27.4806   -0.4044   28.7094 C   0  0  0  0  0  0  0  0  0  0  0  0
  -26.3804   -0.0867   27.9394 C   0  0  0  0  0  0  0  0  0  0  0  0
  -27.8993    0.6459   29.6321 N   0  0  0  0  0  0  0  0  0  0  0  0
  -26.3190    0.9178   27.1016 C   0  0  0  0  0  0  0  0  0  0  0  0
  -25.1519   -0.8370   28.1792 C   0  0  0  0  0  0  0  0  0  0  0  0
  -25.1266    1.1744   26.2946 C   0  0  0  0  0  0  0  0  0  0  0  0
  -25.0760   -1.8476   29.2037 C   0  0  0  0  0  0  0  0  0  0  0  0
  -23.8738    0.7533   26.7000 C   0  0  0  0  0  0  0  0  0  0  0  0
  -23.8970   -0.3357   27.6219 C   0  0  0  0  0  0  0  0  0  0  0  0
  -29.0797    0.4378   30.3978 C   0  0  0  0  0  0  0  0  0  0  0  0
  -29.5844    1.4604   30.7312 C   0  0  0  0  0  0  0  0  0  0  0  0
  -30.7330    1.5923   31.4505 C   0  0  0  0  0  0  0  0  0  0  0  0
  -31.3937    0.3684   31.8002 C   0  0  0  0  0  0  0  0  0  0  0  0
  -30.8154   -0.8269   31.3861 C   0  0  0  0  0  0  0  0  0  0  0  0
  -29.6187   -0.8162   30.6938 C   0  0  0  0  0  0  0  0  0  0  0  0
  -27.1759    1.8663   29.7917 C   0  0  0  0  0  0  0  0  0  0  0  0
  -27.4706    2.8213   29.3344 C   0  0  0  0  0  0  0  0  0  0  0  0
  -26.3716    3.9181   29.3674 C   0  0  0  0  0  0  0  0  0  0  0  0
  -26.5309    5.2241   28.7696 C   0  0  0  0  0  0  0  0  0  0  0  0
  1  2  2  0
  2  3  1  0
  2  4  1  0
  6  8  1  0
  4 11  1  0
  4 17  1  0
 17 18  2  3
 18 19  1  0
 19 20  1  0
 11 12  2  0
 12 13  1  0
 13 14  2  0
 14 15  1  0
 15 16  2  0
 16 11  1  0
  3  5  2  0
  5  7  1  0
  7  9  2  0
  9 10  1  0
 10  6  2  0
  6  3  1  0
M  END

$$$$
