No_4007-gen_results/8p0m/2024-11-27-11-27-31/
     RDKit          3D

 17 19  0  0  0  0  0  0  0  0999 V2000
  -28.0162   -0.8135   28.8779 C   0  0  0  0  0  0  0  0  0  0  0  0
  -27.0636   -0.1189   28.6079 C   0  0  0  0  0  0  0  0  0  0  0  0
  -26.9716    0.7139   27.5060 C   0  0  0  0  0  0  0  0  0  0  0  0
  -28.1053    0.7744   26.6421 C   0  0  0  0  0  0  0  0  0  0  0  0
  -29.2008    0.1044   27.0527 C   0  0  0  0  0  0  0  0  0  0  0  0
  -29.2096   -0.6029   28.1853 C   0  0  0  0  0  0  0  0  0  0  0  0
  -30.2994    0.2279   26.2571 O   0  0  0  0  0  0  0  0  0  0  0  0
  -25.7189   -0.2206   29.4011 C   0  0  0  0  0  0  0  0  0  0  0  0
  -25.3784   -1.0981   29.9807 C   0  0  0  0  0  0  0  0  0  0  0  0
  -24.2786   -1.3672   30.3920 C   0  0  0  0  0  0  0  0  0  0  0  0
  -23.1640   -0.4055   30.3927 C   0  0  0  0  0  0  0  0  0  0  0  0
  -23.4890    0.7279   29.6421 C   0  0  0  0  0  0  0  0  0  0  0  0
  -24.7731    0.8525   29.0549 C   0  0  0  0  0  0  0  0  0  0  0  0
  -30.2615   -0.2688   25.0312 C   0  0  0  0  0  0  0  0  0  0  0  0
  -24.9415    2.0112   28.2415 C   0  0  0  0  0  0  0  0  0  0  0  0
  -26.0611    1.9455   27.3012 C   0  0  0  0  0  0  0  0  0  0  0  0
  -23.6940    2.4257   27.4472 C   0  0  0  0  0  0  0  0  0  0  0  0
  5  7  1  0
  7 14  1  0
 15 17  1  0
  1  2  2  0
  3  4  2  0
  4  5  1  0
  5  6  2  0
  6  1  1  0
  8  9  2  0
  9 10  1  0
 10 11  2  0
 11 12  1  0
 12 13  2  0
  2  3  1  0
  3 16  1  0
 16 15  2  0
 15 13  1  0
 13  8  1  0
  8  2  1  0
M  END

$$$$
