No_426-gen_results/8p0m/2024-11-27-11-27-31/
     RDKit          3D

 13 14  0  0  0  0  0  0  0  0999 V2000
  -28.0162   -0.8135   28.8779 C   0  0  0  0  0  0  0  0  0  0  0  0
  -28.4690   -0.7850   29.8287 C   0  0  0  0  0  0  0  0  0  0  0  0
  -26.6028   -1.0596   28.5384 C   0  0  0  0  0  0  0  0  0  0  0  0
  -25.7969   -1.4490   29.7273 C   0  0  0  0  0  0  0  0  0  0  0  0
  -26.4284   -1.5407   30.9833 C   0  0  0  0  0  0  0  0  0  0  0  0
  -27.7563   -1.2444   31.0750 C   0  0  0  0  0  0  0  0  0  0  0  0
  -24.3921   -1.7399   29.5644 C   0  0  0  0  0  0  0  0  0  0  0  0
  -23.4097   -0.6673   29.6027 C   0  0  0  0  0  0  0  0  0  0  0  0
  -23.4172    0.1882   30.5715 C   0  0  0  0  0  0  0  0  0  0  0  0
  -22.5749   -0.4790   28.4525 C   0  0  0  0  0  0  0  0  0  0  0  0
  -21.6293    0.5783   28.4681 C   0  0  0  0  0  0  0  0  0  0  0  0
  -22.5885    1.4463   30.5159 C   0  0  0  0  0  0  0  0  0  0  0  0
  -21.7256    1.5339   29.4608 C   0  0  0  0  0  0  0  0  0  0  0  0
  4  7  1  0
  7  8  1  0
  1  2  2  0
  2  6  1  0
  6  5  2  0
  5  4  1  0
  4  3  2  0
  3  1  1  0
  8  9  2  0
  9 12  1  0
 12 13  2  0
 13 11  1  0
 11 10  2  0
 10  8  1  0
M  END

$$$$
