No_4683-gen_results/8p0m/2024-11-27-11-27-31/
     RDKit          3D

 25 28  0  0  0  0  0  0  0  0999 V2000
  -28.0162   -0.8135   28.8779 C   0  0  0  0  0  0  0  0  0  0  0  0
  -28.4690   -0.7850   29.8287 C   0  0  0  0  0  0  0  0  0  0  0  0
  -27.0871    0.2903   28.6377 C   0  0  0  0  0  0  0  0  0  0  0  0
  -26.8317    1.2487   29.5869 C   0  0  0  0  0  0  0  0  0  0  0  0
  -28.3914    0.0801   31.0065 C   0  0  0  0  0  0  0  0  0  0  0  0
  -29.0884   -0.0323   32.2295 C   0  0  0  0  0  0  0  0  0  0  0  0
  -27.4751    1.1274   30.7658 C   0  0  0  0  0  0  0  0  0  0  0  0
  -26.3606    0.1644   27.2891 C   0  0  0  0  0  0  0  0  0  0  0  0
  -26.8816    0.4513   26.2325 O   0  0  0  0  0  0  0  0  0  0  0  0
  -25.0835   -0.3535   27.3470 O   0  0  0  0  0  0  0  0  0  0  0  0
  -28.6975    0.6182   33.1945 C   0  0  0  0  0  0  0  0  0  0  0  0
  -27.7872    1.7996   33.0483 C   0  0  0  0  0  0  0  0  0  0  0  0
  -27.1820    2.0060   31.8726 C   0  0  0  0  0  0  0  0  0  0  0  0
  -24.1476    0.3421   28.1420 C   0  0  0  0  0  0  0  0  0  0  0  0
  -23.4040   -0.4158   29.0333 C   0  0  0  0  0  0  0  0  0  0  0  0
  -23.7583   -1.1668   29.8634 C   0  0  0  0  0  0  0  0  0  0  0  0
  -22.9079   -1.8268   30.8071 C   0  0  0  0  0  0  0  0  0  0  0  0
  -22.5708   -0.8999   31.8065 C   0  0  0  0  0  0  0  0  0  0  0  0
  -23.2372    0.1590   32.0445 C   0  0  0  0  0  0  0  0  0  0  0  0
  -23.8264    1.6671   27.6511 C   0  0  0  0  0  0  0  0  0  0  0  0
  -22.5493    2.0169   27.9653 N   0  0  0  0  0  0  0  0  0  0  0  0
  -22.1374    0.3713   29.3635 C   0  0  0  0  0  0  0  0  0  0  0  0
  -21.7803    1.4823   28.8678 N   0  0  0  0  0  0  0  0  0  0  0  0
  -24.7669   -0.9041   30.6004 C   0  0  0  0  0  0  0  0  0  0  0  0
  -24.5932    0.0075   31.7299 C   0  0  0  0  0  0  0  0  0  0  0  0
  3  8  1  0
  8  9  2  0
  8 10  1  0
 10 14  1  0
 15 16  1  0
 14 15  2  0
 15 22  1  0
 22 23  2  0
 23 21  1  0
 21 20  2  0
 20 14  1  0
 16 17  2  0
 17 18  1  0
 18 19  2  0
 19 25  1  0
 25 24  2  0
 24 16  1  0
  5  6  2  0
  6 11  1  0
 11 12  2  0
 12 13  1  0
 13  7  2  0
  1  2  2  0
  2  5  1  0
  5  7  1  0
  7  4  1  0
  4  3  2  0
  3  1  1  0
M  END

$$$$
