No_4121-gen_results/8p0m/2024-11-27-11-27-31/
     RDKit          3D

  7  7  0  0  0  0  0  0  0  0999 V2000
  -28.1955   -0.3709   29.2814 I   0  0  0  0  0  0  0  0  0  0  0  0
  -26.9057    0.8346   28.7710 C   0  0  0  0  0  0  0  0  0  0  0  0
  -26.2296    0.7675   27.4973 C   0  0  0  0  0  0  0  0  0  0  0  0
  -25.1658    1.5612   27.0543 C   0  0  0  0  0  0  0  0  0  0  0  0
  -24.6581    2.5429   27.9978 C   0  0  0  0  0  0  0  0  0  0  0  0
  -25.2000    2.5963   29.2124 C   0  0  0  0  0  0  0  0  0  0  0  0
  -26.1919    1.8068   29.6119 C   0  0  0  0  0  0  0  0  0  0  0  0
  1  2  1  0
  2  3  2  0
  3  4  1  0
  4  5  2  0
  5  6  1  0
  6  7  2  0
  7  2  1  0
M  END

$$$$
