No_4132-gen_results/8p0m/2024-11-27-11-27-31/
     RDKit          3D

 19 19  0  0  0  0  0  0  0  0999 V2000
  -28.0727   -1.2542   28.5316 F   0  0  0  0  0  0  0  0  0  0  0  0
  -27.3591   -0.3792   28.7224 C   0  0  0  0  0  0  0  0  0  0  0  0
  -26.3180   -0.6608   29.1159 F   0  0  0  0  0  0  0  0  0  0  0  0
  -27.2545    0.4794   27.4896 C   0  0  0  0  0  0  0  0  0  0  0  0
  -28.0747    0.7316   30.0248 P   0  0  0  0  0  0  0  0  0  0  0  0
  -28.7473    1.6144   29.5170 O   0  0  0  0  0  0  0  0  0  0  0  0
  -26.7650    1.2190   30.6749 O   0  0  0  0  0  0  0  0  0  0  0  0
  -28.6491   -0.2953   30.9874 O   0  0  0  0  0  0  0  0  0  0  0  0
  -25.9133    0.6662   27.0933 C   0  0  0  0  0  0  0  0  0  0  0  0
  -25.2220    1.8392   27.4780 C   0  0  0  0  0  0  0  0  0  0  0  0
  -23.7673    1.8977   27.3228 C   0  0  0  0  0  0  0  0  0  0  0  0
  -22.9812    1.1897   28.3469 C   0  0  0  0  0  0  0  0  0  0  0  0
  -21.5859    0.9710   28.0970 C   0  0  0  0  0  0  0  0  0  0  0  0
  -20.8847    0.1798   28.9595 C   0  0  0  0  0  0  0  0  0  0  0  0
  -21.7050   -0.9693   29.2997 C   0  0  0  0  0  0  0  0  0  0  0  0
  -23.0661   -0.9516   29.4473 C   0  0  0  0  0  0  0  0  0  0  0  0
  -23.7305    0.1297   28.9101 C   0  0  0  0  0  0  0  0  0  0  0  0
  -28.1348    0.6890   26.7623 F   0  0  0  0  0  0  0  0  0  0  0  0
  -25.3616   -0.0069   25.9713 C   0  0  0  0  0  0  0  0  0  0  0  0
  1  2  1  0
  2  3  1  0
  2  4  1  0
  2  5  1  0
  5  6  2  0
  5  7  1  0
  5  8  1  0
  4  9  1  0
  9 10  1  0
 10 11  2  3
 11 12  1  0
  4 18  1  0
  9 19  1  0
 12 13  2  0
 13 14  1  0
 14 15  2  0
 15 16  1  0
 16 17  2  0
 17 12  1  0
M  END

$$$$
