No_4568-gen_results/8p0m/2024-11-27-11-27-31/
     RDKit          3D

 15 16  0  0  0  0  0  0  0  0999 V2000
  -28.0162   -0.8135   28.8779 C   0  0  0  0  0  0  0  0  0  0  0  0
  -27.0636   -0.1190   28.6079 C   0  0  0  0  0  0  0  0  0  0  0  0
  -26.9716    0.7139   27.5060 C   0  0  0  0  0  0  0  0  0  0  0  0
  -28.1053    0.7744   26.6421 C   0  0  0  0  0  0  0  0  0  0  0  0
  -29.2008    0.1044   27.0527 C   0  0  0  0  0  0  0  0  0  0  0  0
  -29.2096   -0.6029   28.1853 C   0  0  0  0  0  0  0  0  0  0  0  0
  -30.3749    0.2232   26.1670 C   0  0  0  0  0  0  0  0  0  0  0  0
  -31.2461   -0.4191   26.3596 O   0  0  0  0  0  0  0  0  0  0  0  0
  -30.1447    0.7056   24.9278 O   0  0  0  0  0  0  0  0  0  0  0  0
  -25.6995   -0.2158   29.4380 C   0  0  0  0  0  0  0  0  0  0  0  0
  -25.4975   -0.7549   30.2669 C   0  0  0  0  0  0  0  0  0  0  0  0
  -24.1997   -0.8267   31.0387 C   0  0  0  0  0  0  0  0  0  0  0  0
  -23.1093   -0.1548   30.4694 C   0  0  0  0  0  0  0  0  0  0  0  0
  -24.5426    0.5637   28.8183 C   0  0  0  0  0  0  0  0  0  0  0  0
  -23.3491    0.5938   29.3739 C   0  0  0  0  0  0  0  0  0  0  0  0
  5  7  1  0
  7  8  1  0
  7  9  2  0
  2 10  1  0
  1  2  2  0
  2  3  1  0
  3  4  2  0
  4  5  1  0
  5  6  2  0
  6  1  1  0
 10 11  2  0
 11 12  1  0
 12 13  2  0
 13 15  1  0
 15 14  2  0
 14 10  1  0
M  END

$$$$
