No_4378-gen_results/8p0m/2024-11-27-11-27-31/
     RDKit          3D

 12 12  0  0  0  0  0  0  0  0999 V2000
  -28.0162   -0.8135   28.8779 C   0  0  0  0  0  0  0  0  0  0  0  0
  -27.0636   -0.1190   28.6079 C   0  0  0  0  0  0  0  0  0  0  0  0
  -26.8756    1.1325   28.9134 C   0  0  0  0  0  0  0  0  0  0  0  0
  -27.9014    1.8066   29.6436 C   0  0  0  0  0  0  0  0  0  0  0  0
  -29.0458   -0.2316   29.7181 C   0  0  0  0  0  0  0  0  0  0  0  0
  -28.9402    1.0517   30.0597 C   0  0  0  0  0  0  0  0  0  0  0  0
  -30.1632   -1.1170   30.1252 C   0  0  0  0  0  0  0  0  0  0  0  0
  -31.1524   -1.1080   29.6513 O   0  0  0  0  0  0  0  0  0  0  0  0
  -29.8416   -2.0358   31.1044 O   0  0  0  0  0  0  0  0  0  0  0  0
  -25.6709   -0.7998   27.6751 Cl  0  0  0  0  0  0  0  0  0  0  0  0
  -29.8860    1.6067   30.7754 F   0  0  0  0  0  0  0  0  0  0  0  0
  -25.4664    2.0853   28.3448 Cl  0  0  0  0  0  0  0  0  0  0  0  0
  5  7  1  0
  7  8  2  0
  7  9  1  0
  2 10  1  0
  6 11  1  0
  3 12  1  0
  1  2  2  0
  2  3  1  0
  3  4  2  0
  4  6  1  0
  6  5  2  0
  5  1  1  0
M  END

$$$$
