No_4002-gen_results/8p0m/2024-11-27-11-27-31/
     RDKit          3D

 26 28  0  0  0  0  0  0  0  0999 V2000
  -28.0162   -0.8135   28.8779 C   0  0  0  0  0  0  0  0  0  0  0  0
  -27.0636   -0.1190   28.6079 C   0  0  0  0  0  0  0  0  0  0  0  0
  -25.7647   -0.3897   29.0360 C   0  0  0  0  0  0  0  0  0  0  0  0
  -24.5516    0.4058   28.7646 C   0  0  0  0  0  0  0  0  0  0  0  0
  -23.2300    0.1178   29.2575 C   0  0  0  0  0  0  0  0  0  0  0  0
  -23.0942   -1.1309   29.8730 C   0  0  0  0  0  0  0  0  0  0  0  0
  -27.7981   -1.9341   29.8560 C   0  0  0  0  0  0  0  0  0  0  0  0
  -26.5420   -2.3269   30.2580 C   0  0  0  0  0  0  0  0  0  0  0  0
  -25.4514   -1.5516   29.9079 C   0  0  0  0  0  0  0  0  0  0  0  0
  -24.1562   -1.9097   30.2809 C   0  0  0  0  0  0  0  0  0  0  0  0
  -24.4251    1.3674   27.6960 C   0  0  0  0  0  0  0  0  0  0  0  0
  -25.1329    2.1054   27.2199 C   0  0  0  0  0  0  0  0  0  0  0  0
  -24.8760    3.0492   26.1242 C   0  0  0  0  0  0  0  0  0  0  0  0
  -23.6185    3.0275   25.5201 C   0  0  0  0  0  0  0  0  0  0  0  0
  -22.6713    2.1332   26.0628 C   0  0  0  0  0  0  0  0  0  0  0  0
  -22.9511    1.3161   27.0857 C   0  0  0  0  0  0  0  0  0  0  0  0
  -29.0161   -2.7399   30.2606 C   0  0  0  0  0  0  0  0  0  0  0  0
  -28.9831   -3.8633   30.5186 O   0  0  0  0  0  0  0  0  0  0  0  0
  -30.0251   -2.0139   30.7844 N   0  0  0  0  0  0  0  0  0  0  0  0
  -31.2222   -2.6489   31.3126 C   0  0  0  0  0  0  0  0  0  0  0  0
  -31.2499   -3.5972   31.9473 C   0  0  0  0  0  0  0  0  0  0  0  0
  -32.3743   -1.8106   31.0057 C   0  0  0  0  0  0  0  0  0  0  0  0
  -32.3470   -0.5292   30.7074 C   0  0  0  0  0  0  0  0  0  0  0  0
  -33.3359    0.1867   30.1700 C   0  0  0  0  0  0  0  0  0  0  0  0
  -34.5235   -0.4682   29.9312 C   0  0  0  0  0  0  0  0  0  0  0  0
  -34.6333   -1.8054   30.2274 C   0  0  0  0  0  0  0  0  0  0  0  0
  4 11  1  0
  7 17  1  0
 17 18  2  0
 17 19  1  0
 19 20  1  0
 20 21  1  0
 20 22  1  0
 22 23  2  3
 23 24  1  0
 24 25  2  3
 25 26  1  0
 11 12  2  0
 12 13  1  0
 13 14  2  0
 14 15  1  0
 15 16  2  0
 16 11  1  0
  1  2  2  0
  2  3  1  0
  9  8  1  0
  8  7  2  0
  7  1  1  0
  3  4  2  0
  4  5  1  0
  5  6  2  0
  6 10  1  0
 10  9  2  0
  9  3  1  0
M  END

$$$$
