No_483-gen_results/8p0m/2024-11-27-11-27-31/
     RDKit          3D

 35 39  0  0  0  0  0  0  0  0999 V2000
  -28.0162   -0.8135   28.8779 C   0  0  0  0  0  0  0  0  0  0  0  0
  -28.4690   -0.7850   29.8287 C   0  0  0  0  0  0  0  0  0  0  0  0
  -27.0871    0.2903   28.6377 C   0  0  0  0  0  0  0  0  0  0  0  0
  -26.8317    1.2487   29.5869 C   0  0  0  0  0  0  0  0  0  0  0  0
  -28.3914    0.0801   31.0065 C   0  0  0  0  0  0  0  0  0  0  0  0
  -27.4940    1.1521   30.7841 C   0  0  0  0  0  0  0  0  0  0  0  0
  -26.3109    0.3918   27.3640 C   0  0  0  0  0  0  0  0  0  0  0  0
  -25.3678    1.4459   27.3016 C   0  0  0  0  0  0  0  0  0  0  0  0
  -25.2287    2.4021   28.2622 C   0  0  0  0  0  0  0  0  0  0  0  0
  -25.9001    2.3037   29.4530 C   0  0  0  0  0  0  0  0  0  0  0  0
  -25.6462    3.3603   30.4791 C   0  0  0  0  0  0  0  0  0  0  0  0
  -24.8743    3.1441   31.4301 O   0  0  0  0  0  0  0  0  0  0  0  0
  -26.3359    4.4333   30.4505 O   0  0  0  0  0  0  0  0  0  0  0  0
  -24.5883    1.5536   26.0215 C   0  0  0  0  0  0  0  0  0  0  0  0
  -23.3893    2.3449   26.0487 C   0  0  0  0  0  0  0  0  0  0  0  0
  -24.9723    0.8675   24.9361 C   0  0  0  0  0  0  0  0  0  0  0  0
  -22.9908    2.9350   27.1383 N   0  0  0  0  0  0  0  0  0  0  0  0
  -23.9806    3.0428   28.2632 C   0  0  0  0  0  0  0  0  0  0  0  0
  -22.4503    2.5320   25.1450 O   0  0  0  0  0  0  0  0  0  0  0  0
  -26.1879    5.4163   31.2512 C   0  0  0  0  0  0  0  0  0  0  0  0
  -27.3238    6.1351   31.6364 C   0  0  0  0  0  0  0  0  0  0  0  0
  -28.2624    5.9257   31.0867 O   0  0  0  0  0  0  0  0  0  0  0  0
  -27.1444    7.0320   32.7237 N   0  0  0  0  0  0  0  0  0  0  0  0
  -25.9313    7.2930   33.4483 C   0  0  0  0  0  0  0  0  0  0  0  0
  -24.8811    6.7490   32.8343 C   0  0  0  0  0  0  0  0  0  0  0  0
  -24.8744    5.7188   31.8990 C   0  0  0  0  0  0  0  0  0  0  0  0
  -28.3695    7.7892   33.1611 C   0  0  0  0  0  0  0  0  0  0  0  0
  -28.7860    8.7693   32.5239 C   0  0  0  0  0  0  0  0  0  0  0  0
  -29.9691    9.3279   32.8091 C   0  0  0  0  0  0  0  0  0  0  0  0
  -30.7103    8.8386   33.9317 C   0  0  0  0  0  0  0  0  0  0  0  0
  -29.0342    7.1536   34.2545 C   0  0  0  0  0  0  0  0  0  0  0  0
  -28.4878    5.9511   34.9680 C   0  0  0  0  0  0  0  0  0  0  0  0
  -30.1944    7.7321   34.6951 C   0  0  0  0  0  0  0  0  0  0  0  0
  -27.7412    6.1794   36.0966 C   0  0  0  0  0  0  0  0  0  0  0  0
  -28.7600    4.7033   34.4567 C   0  0  0  0  0  0  0  0  0  0  0  0
  3  7  1  0
  7  8  1  0
  4 10  1  0
  9 10  1  0
 10 11  1  0
 11 12  2  0
 11 13  1  0
  8 14  1  0
 14 15  1  0
 14 16  1  0
 15 17  1  0
  9 18  1  0
 17 18  1  0
 15 19  2  0
 13 20  1  0
 20 21  1  0
 21 22  2  0
 21 23  1  0
 23 24  1  0
 20 26  1  0
 25 26  1  0
 23 27  1  0
 31 32  1  0
 32 34  1  0
 32 35  1  0
 25 24  1  0
  8  9  1  0
  1  2  2  0
  2  5  1  0
  5  6  2  0
  6  4  1  0
  4  3  2  0
  3  1  1  0
 27 28  2  0
 28 29  1  0
 29 30  2  0
 30 33  1  0
 33 31  2  0
 31 27  1  0
M  END

$$$$
