No_4333-gen_results/8p0m/2024-11-27-11-27-31/
     RDKit          3D

 15 15  0  0  0  0  0  0  0  0999 V2000
  -28.0162   -0.8135   28.8779 C   0  0  0  0  0  0  0  0  0  0  0  0
  -28.4690   -0.7850   29.8287 C   0  0  0  0  0  0  0  0  0  0  0  0
  -28.1960    0.3478   28.0550 C   0  0  0  0  0  0  0  0  0  0  0  0
  -29.0191    1.3501   28.3782 C   0  0  0  0  0  0  0  0  0  0  0  0
  -28.3170   -1.9812   30.8560 C   0  0  0  0  0  0  0  0  0  0  0  0
  -29.5950    1.2859   29.6049 C   0  0  0  0  0  0  0  0  0  0  0  0
  -29.3465    0.2093   30.3749 C   0  0  0  0  0  0  0  0  0  0  0  0
  -29.3232   -2.5848   30.9810 F   0  0  0  0  0  0  0  0  0  0  0  0
  -27.8315   -1.6140   32.0713 F   0  0  0  0  0  0  0  0  0  0  0  0
  -27.2908   -2.7930   30.3608 F   0  0  0  0  0  0  0  0  0  0  0  0
  -27.4537    0.3772   26.6662 C   0  0  0  0  0  0  0  0  0  0  0  0
  -26.1327    0.3403   26.6614 N   0  0  0  0  0  0  0  0  0  0  0  0
  -25.2655    1.2336   27.1575 C   0  0  0  0  0  0  0  0  0  0  0  0
  -23.8778    0.9143   27.2918 C   0  0  0  0  0  0  0  0  0  0  0  0
  -22.9065    1.9315   27.1405 C   0  0  0  0  0  0  0  0  0  0  0  0
  2  5  1  0
  5  8  1  0
  5  9  1  0
  5 10  1  0
  3 11  1  0
 11 12  1  0
 12 13  1  0
 13 14  2  3
 14 15  1  0
  1  2  2  0
  2  7  1  0
  7  6  2  0
  6  4  1  0
  4  3  2  0
  3  1  1  0
M  END

$$$$
