No_4810-gen_results/8p0m/2024-11-27-11-27-31/
     RDKit          3D

 11 11  0  0  0  0  0  0  0  0999 V2000
  -28.0162   -0.8135   28.8779 C   0  0  0  0  0  0  0  0  0  0  0  0
  -27.0636   -0.1190   28.6079 C   0  0  0  0  0  0  0  0  0  0  0  0
  -25.7923   -0.4302   29.0761 C   0  0  0  0  0  0  0  0  0  0  0  0
  -25.5681   -1.2411   29.7572 C   0  0  0  0  0  0  0  0  0  0  0  0
  -26.6114   -2.1840   30.2439 C   0  0  0  0  0  0  0  0  0  0  0  0
  -27.8191   -1.9189   29.8034 C   0  0  0  0  0  0  0  0  0  0  0  0
  -29.0946   -2.9353   30.3125 Cl  0  0  0  0  0  0  0  0  0  0  0  0
  -27.2464    1.0800   27.6596 C   0  0  0  0  0  0  0  0  0  0  0  0
  -26.3936    1.9352   27.6575 Br  0  0  0  0  0  0  0  0  0  0  0  0
  -27.6934    0.5087   26.5128 F   0  0  0  0  0  0  0  0  0  0  0  0
  -28.5397    1.6231   28.0467 F   0  0  0  0  0  0  0  0  0  0  0  0
  6  7  1  0
  2  8  1  0
  8  9  1  0
  8 10  1  0
  8 11  1  0
  1  2  2  0
  2  3  1  0
  3  4  2  0
  4  5  1  0
  5  6  2  0
  6  1  1  0
M  END

$$$$
