No_4856-gen_results/8p0m/2024-11-27-11-27-31/
     RDKit          3D

 25 26  0  0  0  0  0  0  0  0999 V2000
  -28.0162   -0.8135   28.8779 C   0  0  0  0  0  0  0  0  0  0  0  0
  -27.0636   -0.1189   28.6079 C   0  0  0  0  0  0  0  0  0  0  0  0
  -26.8756    1.1325   28.9134 C   0  0  0  0  0  0  0  0  0  0  0  0
  -25.6883    1.9515   28.5672 C   0  0  0  0  0  0  0  0  0  0  0  0
  -24.6394    1.2834   27.8753 C   0  0  0  0  0  0  0  0  0  0  0  0
  -24.8181   -0.0802   27.6166 C   0  0  0  0  0  0  0  0  0  0  0  0
  -25.9311   -0.7717   27.9696 C   0  0  0  0  0  0  0  0  0  0  0  0
  -28.0898   -1.4945   30.2341 C   0  0  0  0  0  0  0  0  0  0  0  0
  -28.1913   -0.9708   31.1218 F   0  0  0  0  0  0  0  0  0  0  0  0
  -26.8779   -2.2331   30.2700 F   0  0  0  0  0  0  0  0  0  0  0  0
  -29.0128   -2.5579   30.1595 F   0  0  0  0  0  0  0  0  0  0  0  0
  -23.4333    1.9471   27.4989 C   0  0  0  0  0  0  0  0  0  0  0  0
  -23.2242    2.8799   28.1328 F   0  0  0  0  0  0  0  0  0  0  0  0
  -22.3639    1.0332   27.5248 F   0  0  0  0  0  0  0  0  0  0  0  0
  -23.5475    2.3549   26.2099 F   0  0  0  0  0  0  0  0  0  0  0  0
  -27.9313    1.9418   29.6106 C   0  0  0  0  0  0  0  0  0  0  0  0
  -27.9065    3.0432   29.4632 O   0  0  0  0  0  0  0  0  0  0  0  0
  -28.7917    1.2669   30.2139 O   0  0  0  0  0  0  0  0  0  0  0  0
  -29.9901    1.9277   30.5569 C   0  0  0  0  0  0  0  0  0  0  0  0
  -31.0280    1.3365   30.2940 C   0  0  0  0  0  0  0  0  0  0  0  0
  -31.2352   -0.0146   30.1810 C   0  0  0  0  0  0  0  0  0  0  0  0
  -32.3059   -0.6433   29.4362 C   0  0  0  0  0  0  0  0  0  0  0  0
  -33.1484    0.1701   28.9971 C   0  0  0  0  0  0  0  0  0  0  0  0
  -33.1622    1.5652   29.0707 C   0  0  0  0  0  0  0  0  0  0  0  0
  -32.0563    2.1846   29.6702 C   0  0  0  0  0  0  0  0  0  0  0  0
  1  8  1  0
  8  9  1  0
  8 10  1  0
  8 11  1  0
  5 12  1  0
 12 13  1  0
 12 14  1  0
 12 15  1  0
  3 16  1  0
 16 17  2  0
 16 18  1  0
 18 19  1  0
 19 20  1  0
  1  2  1  0
  2  3  2  0
  3  4  1  0
  4  5  2  0
  5  6  1  0
  6  7  2  0
  7  2  1  0
 20 21  2  0
 21 22  1  0
 22 23  2  0
 23 24  1  0
 24 25  2  0
 25 20  1  0
M  END

$$$$
