No_4088-gen_results/8p0m/2024-11-27-11-27-31/
     RDKit          3D

 14 14  0  0  0  0  0  0  0  0999 V2000
  -28.1493   -0.8198   28.9079 Cl  0  0  0  0  0  0  0  0  0  0  0  0
  -27.8339    0.4961   29.0598 C   0  0  0  0  0  0  0  0  0  0  0  0
  -27.6022    1.0128   30.2974 C   0  0  0  0  0  0  0  0  0  0  0  0
  -27.1699    2.3964   30.5338 C   0  0  0  0  0  0  0  0  0  0  0  0
  -26.9133    3.1828   29.3680 C   0  0  0  0  0  0  0  0  0  0  0  0
  -27.0551    2.6221   28.1384 C   0  0  0  0  0  0  0  0  0  0  0  0
  -27.4622    1.3345   27.9669 C   0  0  0  0  0  0  0  0  0  0  0  0
  -27.5695    0.8673   26.7268 O   0  0  0  0  0  0  0  0  0  0  0  0
  -26.4608    0.7944   26.0044 C   0  0  0  0  0  0  0  0  0  0  0  0
  -26.4131    4.5794   29.5673 C   0  0  0  0  0  0  0  0  0  0  0  0
  -25.8139    4.9366   30.6087 N   0  0  0  0  0  0  0  0  0  0  0  0
  -26.4477    5.3896   28.5667 O   0  0  0  0  0  0  0  0  0  0  0  0
  -25.2657    6.3450   30.8188 C   0  0  0  0  0  0  0  0  0  0  0  0
  -25.2812    7.1287   29.8974 C   0  0  0  0  0  0  0  0  0  0  0  0
  1  2  1  0
  7  8  1  0
  8  9  1  0
  5 10  1  0
 10 11  1  0
 10 12  2  0
 11 13  1  0
 13 14  1  0
  2  3  2  0
  3  4  1  0
  4  5  2  0
  5  6  1  0
  6  7  2  0
  7  2  1  0
M  END

$$$$
