No_4925-gen_results/8p0m/2024-11-27-11-27-31/
     RDKit          3D

  8  7  0  0  0  0  0  0  0  0999 V2000
  -28.0727   -1.2542   28.5316 F   0  0  0  0  0  0  0  0  0  0  0  0
  -27.0607   -0.6291   28.8721 C   0  0  0  0  0  0  0  0  0  0  0  0
  -26.1267   -1.0777   29.2000 F   0  0  0  0  0  0  0  0  0  0  0  0
  -27.1088    0.8355   28.6396 C   0  0  0  0  0  0  0  0  0  0  0  0
  -26.2626    1.3603   29.3215 F   0  0  0  0  0  0  0  0  0  0  0  0
  -27.8623    1.4305   27.7557 C   0  0  0  0  0  0  0  0  0  0  0  0
  -28.8402    2.1304   28.1570 C   0  0  0  0  0  0  0  0  0  0  0  0
  -29.6898    2.8190   27.1179 C   0  0  0  0  0  0  0  0  0  0  0  0
  1  2  1  0
  2  3  1  0
  2  4  1  0
  4  5  1  0
  4  6  1  0
  6  7  2  3
  7  8  1  0
M  END

$$$$
