No_4758-gen_results/8p0m/2024-11-27-11-27-31/
     RDKit          3D

 31 34  0  0  0  0  0  0  0  0999 V2000
  -28.0162   -0.8135   28.8779 C   0  0  0  0  0  0  0  0  0  0  0  0
  -27.0636   -0.1190   28.6079 C   0  0  0  0  0  0  0  0  0  0  0  0
  -25.7923   -0.4302   29.0761 C   0  0  0  0  0  0  0  0  0  0  0  0
  -24.5456    0.3494   28.8225 C   0  0  0  0  0  0  0  0  0  0  0  0
  -24.6586    1.4196   27.8878 C   0  0  0  0  0  0  0  0  0  0  0  0
  -25.9471    1.6811   27.3792 C   0  0  0  0  0  0  0  0  0  0  0  0
  -27.0439    0.9739   27.6871 C   0  0  0  0  0  0  0  0  0  0  0  0
  -28.0241   -1.6475   30.1263 C   0  0  0  0  0  0  0  0  0  0  0  0
  -26.7278   -2.0846   30.5807 C   0  0  0  0  0  0  0  0  0  0  0  0
  -25.5915   -1.4064   30.1489 C   0  0  0  0  0  0  0  0  0  0  0  0
  -23.4486    2.1675   27.5241 C   0  0  0  0  0  0  0  0  0  0  0  0
  -22.3039    1.7069   27.7708 O   0  0  0  0  0  0  0  0  0  0  0  0
  -23.6334    3.2530   26.8156 O   0  0  0  0  0  0  0  0  0  0  0  0
  -29.1613   -2.4680   30.5328 C   0  0  0  0  0  0  0  0  0  0  0  0
  -29.1566   -3.6441   30.7692 O   0  0  0  0  0  0  0  0  0  0  0  0
  -30.3412   -1.7630   30.6703 N   0  0  0  0  0  0  0  0  0  0  0  0
  -31.4369   -2.1250   30.9922 C   0  0  0  0  0  0  0  0  0  0  0  0
  -32.4167   -1.7408   31.0387 C   0  0  0  0  0  0  0  0  0  0  0  0
  -32.5858   -0.3177   30.6072 C   0  0  0  0  0  0  0  0  0  0  0  0
  -31.4122    0.3139   30.1320 C   0  0  0  0  0  0  0  0  0  0  0  0
  -30.2845   -0.3624   30.1610 C   0  0  0  0  0  0  0  0  0  0  0  0
  -28.3308    1.3573   27.0264 C   0  0  0  0  0  0  0  0  0  0  0  0
  -28.2972    1.9436   25.8573 C   0  0  0  0  0  0  0  0  0  0  0  0
  -27.2205    2.0861   25.1827 C   0  0  0  0  0  0  0  0  0  0  0  0
  -25.9342    2.2700   25.9963 C   0  0  0  0  0  0  0  0  0  0  0  0
  -31.5113    1.7611   29.7299 C   0  0  0  0  0  0  0  0  0  0  0  0
  -32.0225    2.6355   30.4508 N   0  0  0  0  0  0  0  0  0  0  0  0
  -32.1047    3.8675   30.1881 C   0  0  0  0  0  0  0  0  0  0  0  0
  -31.2991    2.0394   28.5149 O   0  0  0  0  0  0  0  0  0  0  0  0
  -31.0836    4.7426   30.3805 C   0  0  0  0  0  0  0  0  0  0  0  0
  -31.1057    6.0872   29.9659 C   0  0  0  0  0  0  0  0  0  0  0  0
  5 11  1  0
 11 12  2  0
 11 13  1  0
  8 14  1  0
 14 15  2  0
 14 16  1  0
 16 17  1  0
 18 19  1  0
 16 21  1  0
 20 21  1  0
 20 26  1  0
 26 27  1  0
 27 28  2  3
 26 29  2  0
 28 30  1  0
 30 31  2  0
 17 18  1  0
 19 20  1  0
  3  4  1  0
  4  5  2  0
  5  6  1  0
  7  2  1  0
  6  7  2  0
  7 22  1  0
 22 23  2  0
 23 24  1  0
 24 25  2  0
 25  6  1  0
  1  2  2  0
  2  3  1  0
  3 10  2  0
 10  9  1  0
  9  8  2  0
  8  1  1  0
M  END

$$$$
