No_478-gen_results/8p0m/2024-11-27-11-27-31/
     RDKit          3D

 10 10  0  0  0  0  0  0  0  0999 V2000
  -28.0727   -1.2542   28.5316 F   0  0  0  0  0  0  0  0  0  0  0  0
  -28.2662   -0.4214   29.1931 C   0  0  0  0  0  0  0  0  0  0  0  0
  -27.4413   -0.2944   30.1102 F   0  0  0  0  0  0  0  0  0  0  0  0
  -28.3588    0.8955   28.4382 C   0  0  0  0  0  0  0  0  0  0  0  0
  -27.9207    1.8092   28.7554 C   0  0  0  0  0  0  0  0  0  0  0  0
  -27.9705    3.1348   28.0798 C   0  0  0  0  0  0  0  0  0  0  0  0
  -27.2851    4.3613   28.5045 C   0  0  0  0  0  0  0  0  0  0  0  0
  -26.3963    4.2057   29.6147 C   0  0  0  0  0  0  0  0  0  0  0  0
  -26.2020    2.9689   30.2378 C   0  0  0  0  0  0  0  0  0  0  0  0
  -26.8727    1.8929   29.7842 C   0  0  0  0  0  0  0  0  0  0  0  0
  1  2  1  0
  2  3  1  0
  2  4  1  0
  4  5  1  0
  5  6  2  0
  6  7  1  0
  7  8  2  0
  8  9  1  0
  9 10  2  0
 10  5  1  0
M  END

$$$$
