No_4769-gen_results/8p0m/2024-11-27-11-27-31/
     RDKit          3D

 35 38  0  0  0  0  0  0  0  0999 V2000
  -28.0162   -0.8135   28.8779 C   0  0  0  0  0  0  0  0  0  0  0  0
  -27.0636   -0.1190   28.6079 C   0  0  0  0  0  0  0  0  0  0  0  0
  -25.7923   -0.4302   29.0761 C   0  0  0  0  0  0  0  0  0  0  0  0
  -25.5756   -1.5654   29.9363 C   0  0  0  0  0  0  0  0  0  0  0  0
  -26.7354   -2.3004   30.2173 C   0  0  0  0  0  0  0  0  0  0  0  0
  -27.9184   -1.9537   29.7629 C   0  0  0  0  0  0  0  0  0  0  0  0
  -29.0001   -2.7012   30.1151 O   0  0  0  0  0  0  0  0  0  0  0  0
  -24.5290    0.3490   28.7998 C   0  0  0  0  0  0  0  0  0  0  0  0
  -24.1172    1.3368   29.6649 C   0  0  0  0  0  0  0  0  0  0  0  0
  -24.8861    1.7480   30.7400 C   0  0  0  0  0  0  0  0  0  0  0  0
  -25.5372    2.7145   30.9155 C   0  0  0  0  0  0  0  0  0  0  0  0
  -26.1676    3.1282   32.2118 C   0  0  0  0  0  0  0  0  0  0  0  0
  -26.3051    2.1122   33.1335 C   0  0  0  0  0  0  0  0  0  0  0  0
  -25.6649    0.9115   32.9739 C   0  0  0  0  0  0  0  0  0  0  0  0
  -24.9078    0.6632   31.8132 C   0  0  0  0  0  0  0  0  0  0  0  0
  -30.0901   -2.1300   30.6504 C   0  0  0  0  0  0  0  0  0  0  0  0
  -30.7984   -2.9115   31.5230 C   0  0  0  0  0  0  0  0  0  0  0  0
  -31.9513   -2.3776   32.0069 C   0  0  0  0  0  0  0  0  0  0  0  0
  -32.2076   -1.2645   31.7455 C   0  0  0  0  0  0  0  0  0  0  0  0
  -30.6951   -0.8702   30.5345 C   0  0  0  0  0  0  0  0  0  0  0  0
  -31.6933   -0.3942   31.0305 N   0  0  0  0  0  0  0  0  0  0  0  0
  -32.0721    0.9918   30.7746 C   0  0  0  0  0  0  0  0  0  0  0  0
  -27.1600    1.1271   27.7669 C   0  0  0  0  0  0  0  0  0  0  0  0
  -28.5583    1.8766   27.4315 Cl  0  0  0  0  0  0  0  0  0  0  0  0
  -26.1477    1.5918   27.0879 O   0  0  0  0  0  0  0  0  0  0  0  0
  -32.4228    1.3053   29.5327 C   0  0  0  0  0  0  0  0  0  0  0  0
  -32.7576    0.7318   28.6664 C   0  0  0  0  0  0  0  0  0  0  0  0
  -32.9462    0.9959   27.4452 C   0  0  0  0  0  0  0  0  0  0  0  0
  -32.7593    2.3494   27.0476 C   0  0  0  0  0  0  0  0  0  0  0  0
  -32.3309    3.2328   27.9987 C   0  0  0  0  0  0  0  0  0  0  0  0
  -32.0878    2.7956   29.2495 C   0  0  0  0  0  0  0  0  0  0  0  0
  -31.7564    1.7056   31.8082 O   0  0  0  0  0  0  0  0  0  0  0  0
  -25.5475   -0.1744   33.9051 C   0  0  0  0  0  0  0  0  0  0  0  0
  -26.5353   -0.3579   34.7897 N   0  0  0  0  0  0  0  0  0  0  0  0
  -24.5358   -0.9785   33.9367 N   0  0  0  0  0  0  0  0  0  0  0  0
  6  7  1  0
  3  8  1  0
  8  9  2  3
  9 10  1  0
  7 16  1  0
 16 17  1  0
 17 18  1  0
 16 20  1  0
 19 21  1  0
 20 21  1  0
 21 22  1  0
  2 23  1  0
 23 24  1  0
 23 25  2  0
 22 26  1  0
 22 32  2  0
 14 33  1  0
 33 34  1  0
 33 35  2  0
 19 18  1  0
 26 27  2  0
 27 28  1  0
 28 29  2  0
 29 30  1  0
 30 31  2  0
 31 26  1  0
  1  2  2  0
  2  3  1  0
  3  4  2  0
  4  5  1  0
  5  6  2  0
  6  1  1  0
 10 11  2  0
 11 12  1  0
 12 13  2  0
 13 14  1  0
 14 15  2  0
 15 10  1  0
M  END

$$$$
