No_4706-gen_results/8p0m/2024-11-27-11-27-31/
     RDKit          3D

 16 17  0  0  0  0  0  0  0  0999 V2000
  -28.0162   -0.8135   28.8779 C   0  0  0  0  0  0  0  0  0  0  0  0
  -27.0636   -0.1189   28.6079 C   0  0  0  0  0  0  0  0  0  0  0  0
  -26.9716    0.7139   27.5060 C   0  0  0  0  0  0  0  0  0  0  0  0
  -28.1053    0.7744   26.6421 C   0  0  0  0  0  0  0  0  0  0  0  0
  -29.2008    0.1044   27.0527 C   0  0  0  0  0  0  0  0  0  0  0  0
  -28.0219   -1.5899   30.0879 C   0  0  0  0  0  0  0  0  0  0  0  0
  -29.1640   -0.6394   28.1484 C   0  0  0  0  0  0  0  0  0  0  0  0
  -28.8247   -1.8905   30.7103 O   0  0  0  0  0  0  0  0  0  0  0  0
  -26.7951   -2.2213   30.3429 O   0  0  0  0  0  0  0  0  0  0  0  0
  -30.7095    0.2174   25.9649 Br  0  0  0  0  0  0  0  0  0  0  0  0
  -25.7093    1.4435   27.0971 C   0  0  0  0  0  0  0  0  0  0  0  0
  -24.5385    0.8872   27.4697 C   0  0  0  0  0  0  0  0  0  0  0  0
  -23.3125    1.6469   27.3192 C   0  0  0  0  0  0  0  0  0  0  0  0
  -23.4090    2.7144   26.3795 C   0  0  0  0  0  0  0  0  0  0  0  0
  -25.6375    2.6000   26.3818 C   0  0  0  0  0  0  0  0  0  0  0  0
  -24.5667    3.2789   26.0303 C   0  0  0  0  0  0  0  0  0  0  0  0
  1  6  1  0
  6  8  1  0
  6  9  2  0
  5 10  1  0
  3 11  1  0
  1  2  2  0
  2  3  1  0
  3  4  2  0
  4  5  1  0
  5  7  2  0
  7  1  1  0
 11 12  2  0
 12 13  1  0
 13 14  2  0
 14 16  1  0
 16 15  2  0
 15 11  1  0
M  END

$$$$
