No_4397-gen_results/8p0m/2024-11-27-11-27-31/
     RDKit          3D

 19 20  0  0  0  0  0  0  0  0999 V2000
  -28.1229   -1.3353   28.4874 O   0  0  0  0  0  0  0  0  0  0  0  0
  -27.4806   -0.4044   28.7094 C   0  0  0  0  0  0  0  0  0  0  0  0
  -26.3804   -0.0867   27.9394 C   0  0  0  0  0  0  0  0  0  0  0  0
  -27.8993    0.6459   29.6321 N   0  0  0  0  0  0  0  0  0  0  0  0
  -26.3190    0.9178   27.1016 C   0  0  0  0  0  0  0  0  0  0  0  0
  -25.1519   -0.8370   28.1792 C   0  0  0  0  0  0  0  0  0  0  0  0
  -25.1266    1.1744   26.2946 C   0  0  0  0  0  0  0  0  0  0  0  0
  -23.9065   -0.4909   27.5569 C   0  0  0  0  0  0  0  0  0  0  0  0
  -23.9564    0.5366   26.6142 C   0  0  0  0  0  0  0  0  0  0  0  0
  -27.2080    1.8279   29.9655 C   0  0  0  0  0  0  0  0  0  0  0  0
  -26.1555    1.7269   30.7161 C   0  0  0  0  0  0  0  0  0  0  0  0
  -25.8342    0.7941   31.6774 C   0  0  0  0  0  0  0  0  0  0  0  0
  -26.7784    0.0520   32.2222 C   0  0  0  0  0  0  0  0  0  0  0  0
  -29.3345    0.7007   29.6989 C   0  0  0  0  0  0  0  0  0  0  0  0
  -26.3227   -0.9037   33.2081 C   0  0  0  0  0  0  0  0  0  0  0  0
  -25.0183   -0.9921   33.5546 C   0  0  0  0  0  0  0  0  0  0  0  0
  -24.1054   -0.2687   32.8366 C   0  0  0  0  0  0  0  0  0  0  0  0
  -24.4315    0.6686   31.9250 C   0  0  0  0  0  0  0  0  0  0  0  0
  -27.8108    3.0244   29.5246 C   0  0  0  0  0  0  0  0  0  0  0  0
  1  2  2  0
  2  3  1  0
  2  4  1  0
  4 10  1  0
 10 11  2  3
 11 12  1  0
  4 14  1  0
 10 19  1  0
 12 13  2  0
 13 15  1  0
 15 16  2  0
 16 17  1  0
 17 18  2  0
 18 12  1  0
  3  5  2  0
  5  7  1  0
  7  9  2  0
  9  8  1  0
  8  6  2  0
  6  3  1  0
M  END

$$$$
