No_4334-gen_results/8p0m/2024-11-27-11-27-31/
     RDKit          3D

 29 33  0  0  0  0  0  0  0  0999 V2000
  -28.0162   -0.8135   28.8779 C   0  0  0  0  0  0  0  0  0  0  0  0
  -27.1876   -0.3590   28.4524 N   0  0  0  0  0  0  0  0  0  0  0  0
  -28.4538   -0.2503   30.1286 C   0  0  0  0  0  0  0  0  0  0  0  0
  -27.8106    0.6848   30.5206 C   0  0  0  0  0  0  0  0  0  0  0  0
  -26.3329    0.6598   28.8027 C   0  0  0  0  0  0  0  0  0  0  0  0
  -28.1759    1.4090   31.8450 C   0  0  0  0  0  0  0  0  0  0  0  0
  -26.7030    1.2426   29.9871 C   0  0  0  0  0  0  0  0  0  0  0  0
  -28.0882    2.4158   32.3516 C   0  0  0  0  0  0  0  0  0  0  0  0
  -27.3804    3.4925   31.4769 C   0  0  0  0  0  0  0  0  0  0  0  0
  -26.2969    3.5042   30.6386 C   0  0  0  0  0  0  0  0  0  0  0  0
  -26.0315    2.5444   30.0117 C   0  0  0  0  0  0  0  0  0  0  0  0
  -25.3450    1.0258   27.9926 O   0  0  0  0  0  0  0  0  0  0  0  0
  -29.5752   -1.0383   30.8312 C   0  0  0  0  0  0  0  0  0  0  0  0
  -30.6045   -0.6621   30.9514 N   0  0  0  0  0  0  0  0  0  0  0  0
  -31.1063    0.4223   30.4310 C   0  0  0  0  0  0  0  0  0  0  0  0
  -32.4564    0.8322   30.6924 C   0  0  0  0  0  0  0  0  0  0  0  0
  -31.7017   -1.3960   31.6229 C   0  0  0  0  0  0  0  0  0  0  0  0
  -32.9705   -0.2640   31.3724 C   0  0  0  0  0  0  0  0  0  0  0  0
  -29.1752   -2.2437   31.1666 O   0  0  0  0  0  0  0  0  0  0  0  0
  -34.2213   -0.5313   31.9238 C   0  0  0  0  0  0  0  0  0  0  0  0
  -35.1904   -0.0844   31.5198 O   0  0  0  0  0  0  0  0  0  0  0  0
  -34.2656   -1.3851   33.0471 N   0  0  0  0  0  0  0  0  0  0  0  0
  -33.2567   -1.9425   33.7994 C   0  0  0  0  0  0  0  0  0  0  0  0
  -33.4302   -2.5867   34.7381 C   0  0  0  0  0  0  0  0  0  0  0  0
  -32.3917   -3.3375   35.4434 C   0  0  0  0  0  0  0  0  0  0  0  0
  -31.0559   -3.1961   35.0005 C   0  0  0  0  0  0  0  0  0  0  0  0
  -30.8317   -2.4264   33.8748 C   0  0  0  0  0  0  0  0  0  0  0  0
  -31.9045   -1.7789   33.2620 C   0  0  0  0  0  0  0  0  0  0  0  0
  -24.9790    2.7687   29.1430 O   0  0  0  0  0  0  0  0  0  0  0  0
  1  3  1  0
  3  4  1  0
  2  5  1  0
  4  6  1  0
  4  7  1  0
  5  7  1  0
  6  8  2  0
  8  9  1  0
  9 10  2  0
  7 11  1  0
 10 11  1  0
  5 12  2  0
  3 13  1  0
 13 14  1  0
 14 15  1  0
 15 16  2  0
 14 17  1  0
 16 18  1  0
 17 18  1  0
 13 19  2  0
 18 20  1  0
 20 21  2  0
 20 22  1  0
 22 23  1  0
 17 28  1  0
 11 29  2  0
  2  1  1  0
 23 24  2  0
 24 25  1  0
 25 26  2  0
 26 27  1  0
 27 28  2  0
 28 23  1  0
M  END

$$$$
