No_4955-gen_results/8p0m/2024-11-27-11-27-31/
     RDKit          3D

 23 24  0  0  0  0  0  0  0  0999 V2000
  -28.0162   -0.8135   28.8779 C   0  0  0  0  0  0  0  0  0  0  0  0
  -28.4690   -0.7850   29.8287 C   0  0  0  0  0  0  0  0  0  0  0  0
  -27.0871    0.2903   28.6377 C   0  0  0  0  0  0  0  0  0  0  0  0
  -26.8317    1.2487   29.5869 C   0  0  0  0  0  0  0  0  0  0  0  0
  -28.3914    0.0801   31.0065 C   0  0  0  0  0  0  0  0  0  0  0  0
  -27.4940    1.1521   30.7841 C   0  0  0  0  0  0  0  0  0  0  0  0
  -26.2790    0.6012   27.4101 C   0  0  0  0  0  0  0  0  0  0  0  0
  -25.0989    0.7782   27.3672 C   0  0  0  0  0  0  0  0  0  0  0  0
  -24.4922    1.4712   28.5253 C   0  0  0  0  0  0  0  0  0  0  0  0
  -25.3827    1.6988   29.6505 C   0  0  0  0  0  0  0  0  0  0  0  0
  -23.2040    2.1110   28.3875 C   0  0  0  0  0  0  0  0  0  0  0  0
  -22.6512    2.5220   29.3285 O   0  0  0  0  0  0  0  0  0  0  0  0
  -22.4964    1.9858   27.2679 O   0  0  0  0  0  0  0  0  0  0  0  0
  -29.5339   -1.8075   30.0750 O   0  0  0  0  0  0  0  0  0  0  0  0
  -30.7010   -1.5736   30.0812 C   0  0  0  0  0  0  0  0  0  0  0  0
  -31.3161   -0.9323   29.3301 C   0  0  0  0  0  0  0  0  0  0  0  0
  -30.9726   -0.0880   28.5169 C   0  0  0  0  0  0  0  0  0  0  0  0
  -31.5221    0.7563   27.6109 C   0  0  0  0  0  0  0  0  0  0  0  0
  -30.8835    1.6031   26.6544 C   0  0  0  0  0  0  0  0  0  0  0  0
  -29.5091    1.6480   26.6976 C   0  0  0  0  0  0  0  0  0  0  0  0
  -28.8324    2.4795   25.7981 C   0  0  0  0  0  0  0  0  0  0  0  0
  -29.5180    3.0824   24.8363 C   0  0  0  0  0  0  0  0  0  0  0  0
  -30.8932    3.0451   24.6814 C   0  0  0  0  0  0  0  0  0  0  0  0
  9 11  1  0
 11 12  1  0
 11 13  2  0
  2 14  1  0
 14 15  1  0
 15 16  1  0
 16 17  2  3
 17 18  1  0
 18 19  2  3
 19 20  1  0
 20 21  2  3
 21 22  1  0
 22 23  2  0
  4 10  2  0
 10  9  1  0
  9  8  2  0
  8  7  1  0
  7  3  2  0
  1  2  2  0
  2  5  1  0
  5  6  2  0
  6  4  1  0
  4  3  1  0
  3  1  1  0
M  END

$$$$
