No_4117-gen_results/8p0m/2024-11-27-11-27-31/
     RDKit          3D

 21 22  0  0  0  0  0  0  0  0999 V2000
  -28.0162   -0.8135   28.8779 C   0  0  0  0  0  0  0  0  0  0  0  0
  -27.0636   -0.1189   28.6079 C   0  0  0  0  0  0  0  0  0  0  0  0
  -25.7647   -0.3897   29.0360 C   0  0  0  0  0  0  0  0  0  0  0  0
  -25.5296   -1.5302   29.9014 C   0  0  0  0  0  0  0  0  0  0  0  0
  -26.6888   -2.2893   30.1810 C   0  0  0  0  0  0  0  0  0  0  0  0
  -27.8727   -1.9508   29.7373 C   0  0  0  0  0  0  0  0  0  0  0  0
  -28.9304   -2.7298   30.1154 O   0  0  0  0  0  0  0  0  0  0  0  0
  -24.5394    0.4211   28.7421 C   0  0  0  0  0  0  0  0  0  0  0  0
  -24.5259    1.2743   27.7265 C   0  0  0  0  0  0  0  0  0  0  0  0
  -23.5071    1.9288   27.3653 C   0  0  0  0  0  0  0  0  0  0  0  0
  -22.2254    1.7877   27.9565 C   0  0  0  0  0  0  0  0  0  0  0  0
  -23.3139    0.1625   29.3784 C   0  0  0  0  0  0  0  0  0  0  0  0
  -22.1327    0.8776   28.9916 C   0  0  0  0  0  0  0  0  0  0  0  0
  -30.0618   -2.2205   30.5666 C   0  0  0  0  0  0  0  0  0  0  0  0
  -31.0997   -2.9286   30.2219 C   0  0  0  0  0  0  0  0  0  0  0  0
  -31.9754   -2.4973   29.5697 O   0  0  0  0  0  0  0  0  0  0  0  0
  -31.4570   -3.9555   31.0015 O   0  0  0  0  0  0  0  0  0  0  0  0
  -23.5550    3.1061   26.0546 Cl  0  0  0  0  0  0  0  0  0  0  0  0
  -32.2597   -1.3267   29.2788 C   0  0  0  0  0  0  0  0  0  0  0  0
  -32.2948   -0.8750   27.9314 C   0  0  0  0  0  0  0  0  0  0  0  0
  -32.2316   -1.6199   27.0664 O   0  0  0  0  0  0  0  0  0  0  0  0
  6  7  1  0
  3  8  1  0
  7 14  1  0
 14 15  1  0
 15 16  1  0
 15 17  2  0
 10 18  1  0
 16 19  1  0
 19 20  2  0
 20 21  2  0
  1  2  2  0
  2  3  1  0
  3  4  2  0
  4  5  1  0
  5  6  2  0
  6  1  1  0
  8  9  2  0
  9 10  1  0
 10 11  2  0
 11 13  1  0
 13 12  2  0
 12  8  1  0
M  END

$$$$
