No_4017-gen_results/8p0m/2024-11-27-11-27-31/
     RDKit          3D

 35 38  0  0  0  0  0  0  0  0999 V2000
  -28.0162   -0.8135   28.8779 C   0  0  0  0  0  0  0  0  0  0  0  0
  -27.0636   -0.1189   28.6079 C   0  0  0  0  0  0  0  0  0  0  0  0
  -26.9716    0.7139   27.5060 C   0  0  0  0  0  0  0  0  0  0  0  0
  -25.8205    1.4910   27.1160 C   0  0  0  0  0  0  0  0  0  0  0  0
  -24.6562    1.4242   27.9180 C   0  0  0  0  0  0  0  0  0  0  0  0
  -24.6847    0.5901   29.0659 C   0  0  0  0  0  0  0  0  0  0  0  0
  -25.8099   -0.1265   29.3338 C   0  0  0  0  0  0  0  0  0  0  0  0
  -29.2185   -0.0422   29.3127 C   0  0  0  0  0  0  0  0  0  0  0  0
  -30.2802   -0.8075   29.8362 C   0  0  0  0  0  0  0  0  0  0  0  0
  -23.4679    2.2043   27.6013 C   0  0  0  0  0  0  0  0  0  0  0  0
  -23.4450    2.8603   26.7084 F   0  0  0  0  0  0  0  0  0  0  0  0
  -22.3477    1.2851   27.4287 F   0  0  0  0  0  0  0  0  0  0  0  0
  -23.0827    2.9159   28.7163 F   0  0  0  0  0  0  0  0  0  0  0  0
  -31.5490   -0.7722   29.3531 C   0  0  0  0  0  0  0  0  0  0  0  0
  -32.5591   -1.6444   29.8297 C   0  0  0  0  0  0  0  0  0  0  0  0
  -32.2334   -2.5533   30.8159 C   0  0  0  0  0  0  0  0  0  0  0  0
  -30.9651   -2.6488   31.3494 C   0  0  0  0  0  0  0  0  0  0  0  0
  -29.9465   -1.8052   30.8338 C   0  0  0  0  0  0  0  0  0  0  0  0
  -28.1920    0.9590   26.7161 C   0  0  0  0  0  0  0  0  0  0  0  0
  -28.8689    1.8924   26.8525 O   0  0  0  0  0  0  0  0  0  0  0  0
  -28.5619   -0.1564   26.0084 O   0  0  0  0  0  0  0  0  0  0  0  0
  -33.9161   -1.5230   29.3477 C   0  0  0  0  0  0  0  0  0  0  0  0
  -34.3975   -2.1195   28.5442 O   0  0  0  0  0  0  0  0  0  0  0  0
  -34.6200   -0.3822   29.8578 N   0  0  0  0  0  0  0  0  0  0  0  0
  -35.9414   -0.0915   29.4378 C   0  0  0  0  0  0  0  0  0  0  0  0
  -34.0781    0.5350   30.8832 C   0  0  0  0  0  0  0  0  0  0  0  0
  -33.7938    1.6763   30.7636 C   0  0  0  0  0  0  0  0  0  0  0  0
  -33.1172    2.4249   31.7781 C   0  0  0  0  0  0  0  0  0  0  0  0
  -32.7522    1.7582   32.9498 C   0  0  0  0  0  0  0  0  0  0  0  0
  -33.6065   -0.1499   32.1025 C   0  0  0  0  0  0  0  0  0  0  0  0
  -33.0268    0.5182   33.1292 C   0  0  0  0  0  0  0  0  0  0  0  0
  -30.6403   -3.5597   32.4375 C   0  0  0  0  0  0  0  0  0  0  0  0
  -29.3286   -4.2397   32.2894 C   0  0  0  0  0  0  0  0  0  0  0  0
  -28.3715   -3.5119   31.6856 N   0  0  0  0  0  0  0  0  0  0  0  0
  -28.6817   -2.4842   30.6864 C   0  0  0  0  0  0  0  0  0  0  0  0
  1  2  2  3
  2  3  1  0
  3  4  1  0
  4  5  1  0
  5  6  1  0
  2  7  1  0
  6  7  1  0
  1  8  1  0
  8  9  1  0
  5 10  1  0
 10 11  1  0
 10 12  1  0
 10 13  1  0
  3 19  1  0
 19 20  2  0
 19 21  1  0
 15 22  1  0
 22 23  2  0
 22 24  1  0
 24 25  1  0
 24 26  1  0
 17 32  1  0
 32 33  1  0
 33 34  1  0
 18 35  1  0
 34 35  1  0
  9 14  2  0
 14 15  1  0
 15 16  2  0
 16 17  1  0
 17 18  2  0
 18  9  1  0
 26 27  2  0
 27 28  1  0
 28 29  2  0
 29 31  1  0
 31 30  2  0
 30 26  1  0
M  END

$$$$
