No_4980-gen_results/8p0m/2024-11-27-11-27-31/
     RDKit          3D

  7  7  0  0  0  0  0  0  0  0999 V2000
  -28.0544   -1.0498   28.7246 N   0  0  0  0  0  0  0  0  0  0  0  0
  -27.7460   -0.0733   29.0098 C   0  0  0  0  0  0  0  0  0  0  0  0
  -27.5562    0.3369   30.3393 C   0  0  0  0  0  0  0  0  0  0  0  0
  -27.8558   -0.5867   31.3709 C   0  0  0  0  0  0  0  0  0  0  0  0
  -28.2477   -1.8503   30.9650 C   0  0  0  0  0  0  0  0  0  0  0  0
  -28.3271   -2.1308   29.6397 C   0  0  0  0  0  0  0  0  0  0  0  0
  -27.3385    1.1020   27.8228 Cl  0  0  0  0  0  0  0  0  0  0  0  0
  2  7  1  0
  1  2  2  0
  2  3  1  0
  3  4  2  0
  4  5  1  0
  5  6  2  0
  6  1  1  0
M  END

$$$$
