No_4947-gen_results/8p0m/2024-11-27-11-27-31/
     RDKit          3D

 35 38  0  0  0  0  0  0  0  0999 V2000
  -28.0162   -0.8135   28.8779 C   0  0  0  0  0  0  0  0  0  0  0  0
  -28.4690   -0.7850   29.8287 C   0  0  0  0  0  0  0  0  0  0  0  0
  -26.5042   -0.7777   28.8766 C   0  0  0  0  0  0  0  0  0  0  0  0
  -25.8103   -0.8531   30.1028 C   0  0  0  0  0  0  0  0  0  0  0  0
  -27.9906   -0.8916   31.2257 C   0  0  0  0  0  0  0  0  0  0  0  0
  -26.6042   -0.8676   31.2652 C   0  0  0  0  0  0  0  0  0  0  0  0
  -24.3894   -0.8049   30.1638 C   0  0  0  0  0  0  0  0  0  0  0  0
  -23.7660   -0.9500   31.0679 C   0  0  0  0  0  0  0  0  0  0  0  0
  -24.4866   -1.0287   32.3849 C   0  0  0  0  0  0  0  0  0  0  0  0
  -25.8375   -0.9259   32.4678 C   0  0  0  0  0  0  0  0  0  0  0  0
  -25.7181   -0.6971   27.6153 C   0  0  0  0  0  0  0  0  0  0  0  0
  -26.1279    0.2794   26.6623 C   0  0  0  0  0  0  0  0  0  0  0  0
  -25.2764    0.6358   25.7698 C   0  0  0  0  0  0  0  0  0  0  0  0
  -25.5985    1.3445   24.6719 C   0  0  0  0  0  0  0  0  0  0  0  0
  -27.0369    1.6882   24.5601 C   0  0  0  0  0  0  0  0  0  0  0  0
  -27.9181    1.3756   25.5185 C   0  0  0  0  0  0  0  0  0  0  0  0
  -27.5066    0.5879   26.5629 C   0  0  0  0  0  0  0  0  0  0  0  0
  -30.0535   -0.9387   30.0426 C   0  0  0  0  0  0  0  0  0  0  0  0
  -30.5752   -1.9560   30.0556 O   0  0  0  0  0  0  0  0  0  0  0  0
  -30.7737    0.2399   29.5645 N   0  0  0  0  0  0  0  0  0  0  0  0
  -32.1757    0.1925   29.4322 C   0  0  0  0  0  0  0  0  0  0  0  0
  -30.1456    1.5640   29.4616 C   0  0  0  0  0  0  0  0  0  0  0  0
  -30.9097    2.4683   28.6124 C   0  0  0  0  0  0  0  0  0  0  0  0
  -32.7478    1.0881   28.4996 C   0  0  0  0  0  0  0  0  0  0  0  0
  -32.2440    2.3854   28.4273 C   0  0  0  0  0  0  0  0  0  0  0  0
  -30.1349    3.7254   28.2456 C   0  0  0  0  0  0  0  0  0  0  0  0
  -28.9363    3.8976   28.6609 N   0  0  0  0  0  0  0  0  0  0  0  0
  -30.7526    4.6633   27.7547 O   0  0  0  0  0  0  0  0  0  0  0  0
  -28.0873    4.9953   28.2055 C   0  0  0  0  0  0  0  0  0  0  0  0
  -27.2102    5.4247   29.1429 C   0  0  0  0  0  0  0  0  0  0  0  0
  -26.2494    4.9716   29.5418 C   0  0  0  0  0  0  0  0  0  0  0  0
  -25.8221    3.6449   29.0687 C   0  0  0  0  0  0  0  0  0  0  0  0
  -25.1156    3.5334   27.9200 C   0  0  0  0  0  0  0  0  0  0  0  0
  -26.0203    2.4933   29.9335 C   0  0  0  0  0  0  0  0  0  0  0  0
  -24.1166    2.6953   27.8229 O   0  0  0  0  0  0  0  0  0  0  0  0
  3 11  1  0
 11 12  1  0
  2 18  1  0
 18 19  2  0
 18 20  1  0
 20 21  1  0
 20 22  1  0
 23 25  1  0
 24 25  1  0
 23 26  1  0
 26 27  1  0
 26 28  2  0
 27 29  1  0
 29 30  1  0
 30 31  2  3
 31 32  1  0
 32 33  1  0
 32 34  1  0
 33 35  2  0
 21 24  1  0
 23 22  1  0
  6 10  1  0
 10  9  2  0
  9  8  1  0
  8  7  2  0
  7  4  1  0
 12 13  2  0
 13 14  1  0
 14 15  2  0
 15 16  1  0
 16 17  2  0
 17 12  1  0
  1  2  2  0
  2  5  1  0
  5  6  2  0
  6  4  1  0
  4  3  2  0
  3  1  1  0
M  END

$$$$
