No_4494-gen_results/8p0m/2024-11-27-11-27-31/
     RDKit          3D

 15 15  0  0  0  0  0  0  0  0999 V2000
  -28.1229   -1.3353   28.4874 O   0  0  0  0  0  0  0  0  0  0  0  0
  -27.4806   -0.4044   28.7094 C   0  0  0  0  0  0  0  0  0  0  0  0
  -26.3804   -0.0867   27.9394 C   0  0  0  0  0  0  0  0  0  0  0  0
  -27.6665    0.4468   29.8988 N   0  0  0  0  0  0  0  0  0  0  0  0
  -25.8048    1.1658   28.0750 C   0  0  0  0  0  0  0  0  0  0  0  0
  -26.0441    1.9125   29.2704 C   0  0  0  0  0  0  0  0  0  0  0  0
  -27.0331    1.5567   30.1007 C   0  0  0  0  0  0  0  0  0  0  0  0
  -25.3430    3.0289   29.4159 F   0  0  0  0  0  0  0  0  0  0  0  0
  -24.6431    1.6072   27.2195 C   0  0  0  0  0  0  0  0  0  0  0  0
  -23.2578    1.4892   27.6283 C   0  0  0  0  0  0  0  0  0  0  0  0
  -22.8087    0.9767   28.8583 C   0  0  0  0  0  0  0  0  0  0  0  0
  -21.5506    0.6509   28.9748 N   0  0  0  0  0  0  0  0  0  0  0  0
  -24.9888    2.0469   25.9047 C   0  0  0  0  0  0  0  0  0  0  0  0
  -23.5360    0.7460   29.8515 O   0  0  0  0  0  0  0  0  0  0  0  0
  -22.3716    1.9264   26.7550 O   0  0  0  0  0  0  0  0  0  0  0  0
  1  2  2  0
  2  3  1  0
  2  4  1  0
  5  6  1  0
  6  7  1  0
  6  8  1  0
  5  9  1  0
  9 10  1  0
 10 11  1  0
 11 12  1  0
  9 13  1  0
 11 14  2  0
 10 15  2  0
  3  5  1  0
  7  4  1  0
M  END

$$$$
