No_4183-gen_results/8p0m/2024-11-27-11-27-31/
     RDKit          3D

 24 24  0  0  0  0  0  0  0  0999 V2000
  -28.0162   -0.8135   28.8779 C   0  0  0  0  0  0  0  0  0  0  0  0
  -28.4690   -0.7850   29.8287 C   0  0  0  0  0  0  0  0  0  0  0  0
  -26.5042   -0.7777   28.8766 C   0  0  0  0  0  0  0  0  0  0  0  0
  -25.8103   -0.8531   30.1028 C   0  0  0  0  0  0  0  0  0  0  0  0
  -27.9906   -0.8916   31.2257 C   0  0  0  0  0  0  0  0  0  0  0  0
  -26.6042   -0.8676   31.2652 C   0  0  0  0  0  0  0  0  0  0  0  0
  -24.1648   -0.7915   30.1717 Cl  0  0  0  0  0  0  0  0  0  0  0  0
  -30.0988   -0.8363   29.8511 C   0  0  0  0  0  0  0  0  0  0  0  0
  -30.7434   -1.6668   30.1991 O   0  0  0  0  0  0  0  0  0  0  0  0
  -30.6228    0.2267   29.2815 O   0  0  0  0  0  0  0  0  0  0  0  0
  -25.6446   -0.6996   27.6535 C   0  0  0  0  0  0  0  0  0  0  0  0
  -25.9699    0.2399   26.6466 C   0  0  0  0  0  0  0  0  0  0  0  0
  -25.0539    0.6578   25.7772 C   0  0  0  0  0  0  0  0  0  0  0  0
  -27.2776    0.1567   26.0193 C   0  0  0  0  0  0  0  0  0  0  0  0
  -27.5769    0.7903   24.8485 C   0  0  0  0  0  0  0  0  0  0  0  0
  -23.6033    0.7850   26.2539 C   0  0  0  0  0  0  0  0  0  0  0  0
  -28.9357    0.8616   24.5422 C   0  0  0  0  0  0  0  0  0  0  0  0
  -29.8143    0.3861   25.3227 C   0  0  0  0  0  0  0  0  0  0  0  0
  -31.1844    0.4174   24.8576 C   0  0  0  0  0  0  0  0  0  0  0  0
  -23.2651    0.7256   27.5891 C   0  0  0  0  0  0  0  0  0  0  0  0
  -32.2580   -0.1568   25.6446 C   0  0  0  0  0  0  0  0  0  0  0  0
  -33.5186   -0.0995   25.2628 C   0  0  0  0  0  0  0  0  0  0  0  0
  -33.8030    0.5094   24.0080 C   0  0  0  0  0  0  0  0  0  0  0  0
  -32.8282    1.0658   23.2215 C   0  0  0  0  0  0  0  0  0  0  0  0
  4  7  1  0
  2  8  1  0
  8  9  2  0
  8 10  1  0
  3 11  1  0
 11 12  1  0
 12 13  2  3
 12 14  1  0
 14 15  2  3
 13 16  1  0
 15 17  1  0
 17 18  2  3
 18 19  1  0
 16 20  1  0
 19 21  2  3
 21 22  1  0
 22 23  2  3
 23 24  1  0
  1  2  2  0
  2  5  1  0
  5  6  2  0
  6  4  1  0
  4  3  2  0
  3  1  1  0
M  END

$$$$
