No_4258-gen_results/8p0m/2024-11-27-11-27-31/
     RDKit          3D

 14 15  0  0  0  0  0  0  0  0999 V2000
  -28.1229   -1.3353   28.4874 O   0  0  0  0  0  0  0  0  0  0  0  0
  -27.4806   -0.4044   28.7094 C   0  0  0  0  0  0  0  0  0  0  0  0
  -27.1904    0.2460   29.5268 C   0  0  0  0  0  0  0  0  0  0  0  0
  -26.6021   -0.1576   27.5515 N   0  0  0  0  0  0  0  0  0  0  0  0
  -25.6421    0.9031   27.5822 C   0  0  0  0  0  0  0  0  0  0  0  0
  -26.2526    1.3734   29.7933 C   0  0  0  0  0  0  0  0  0  0  0  0
  -25.4742    1.6549   28.6932 C   0  0  0  0  0  0  0  0  0  0  0  0
  -28.0115    0.0221   30.9261 C   0  0  0  0  0  0  0  0  0  0  0  0
  -29.2561    0.4734   30.8467 C   0  0  0  0  0  0  0  0  0  0  0  0
  -29.6099    1.5104   30.5215 C   0  0  0  0  0  0  0  0  0  0  0  0
  -31.0515    1.9634   30.5406 C   0  0  0  0  0  0  0  0  0  0  0  0
  -31.9614    1.0076   30.9706 C   0  0  0  0  0  0  0  0  0  0  0  0
  -31.5599   -0.2411   31.3124 C   0  0  0  0  0  0  0  0  0  0  0  0
  -30.2361   -0.5999   31.3501 C   0  0  0  0  0  0  0  0  0  0  0  0
  1  2  2  0
  2  3  1  0
  2  4  1  0
  3  6  1  0
  5  7  1  0
  3  8  1  0
  8  9  1  0
  6  7  1  0
  5  4  1  0
  9 10  2  0
 10 11  1  0
 11 12  2  0
 12 13  1  0
 13 14  2  0
 14  9  1  0
M  END

$$$$
