No_4795-gen_results/8p0m/2024-11-27-11-27-31/
     RDKit          3D

 16 18  0  0  0  0  0  0  0  0999 V2000
  -28.0162   -0.8135   28.8779 C   0  0  0  0  0  0  0  0  0  0  0  0
  -28.4690   -0.7850   29.8287 C   0  0  0  0  0  0  0  0  0  0  0  0
  -28.1960    0.3478   28.0550 C   0  0  0  0  0  0  0  0  0  0  0  0
  -29.0191    1.3501   28.3782 C   0  0  0  0  0  0  0  0  0  0  0  0
  -29.4107    0.1803   30.3782 C   0  0  0  0  0  0  0  0  0  0  0  0
  -29.6059    1.2495   29.6193 C   0  0  0  0  0  0  0  0  0  0  0  0
  -27.4146    0.4463   26.4578 Cl  0  0  0  0  0  0  0  0  0  0  0  0
  -29.8447   -0.1646   31.7976 C   0  0  0  0  0  0  0  0  0  0  0  0
  -29.9618    0.9045   32.5846 C   0  0  0  0  0  0  0  0  0  0  0  0
  -29.4730    2.1627   32.2156 C   0  0  0  0  0  0  0  0  0  0  0  0
  -29.3904    3.1850   33.1033 C   0  0  0  0  0  0  0  0  0  0  0  0
  -29.9388    2.9028   34.4310 C   0  0  0  0  0  0  0  0  0  0  0  0
  -30.3905    1.7281   34.8075 C   0  0  0  0  0  0  0  0  0  0  0  0
  -30.3408    0.6915   33.9261 C   0  0  0  0  0  0  0  0  0  0  0  0
  -29.0512   -1.2903   32.2829 C   0  0  0  0  0  0  0  0  0  0  0  0
  -28.1703   -1.8982   30.7139 N   0  0  0  0  0  0  0  0  0  0  0  0
  3  7  1  0
  5  8  1  0
  8 15  1  0
  2 16  1  0
 15 16  1  0
  8  9  1  0
  9 10  2  0
 10 11  1  0
 11 12  2  0
 12 13  1  0
 13 14  2  0
 14  9  1  0
  1  2  2  0
  2  5  1  0
  5  6  2  0
  6  4  1  0
  4  3  2  0
  3  1  1  0
M  END

$$$$
