No_4513-gen_results/8p0m/2024-11-27-11-27-31/
     RDKit          3D

 24 25  0  0  0  0  0  0  0  0999 V2000
  -28.1229   -1.3353   28.4874 O   0  0  0  0  0  0  0  0  0  0  0  0
  -28.5208   -0.4363   29.0779 C   0  0  0  0  0  0  0  0  0  0  0  0
  -28.5894    0.5916   28.9464 C   0  0  0  0  0  0  0  0  0  0  0  0
  -29.1246   -0.9399   30.4266 N   0  0  0  0  0  0  0  0  0  0  0  0
  -27.6200    1.2738   28.1389 C   0  0  0  0  0  0  0  0  0  0  0  0
  -26.2751    0.9745   28.4777 C   0  0  0  0  0  0  0  0  0  0  0  0
  -25.2265    0.9645   27.5856 C   0  0  0  0  0  0  0  0  0  0  0  0
  -23.9705    0.4562   27.9819 C   0  0  0  0  0  0  0  0  0  0  0  0
  -23.7758   -0.1725   29.2391 C   0  0  0  0  0  0  0  0  0  0  0  0
  -24.8406   -0.2586   30.0619 C   0  0  0  0  0  0  0  0  0  0  0  0
  -26.0465    0.2620   29.7346 C   0  0  0  0  0  0  0  0  0  0  0  0
  -29.1850   -2.4048   30.7876 C   0  0  0  0  0  0  0  0  0  0  0  0
  -29.7567   -0.1179   31.3816 C   0  0  0  0  0  0  0  0  0  0  0  0
  -25.3036    1.5204   26.2669 C   0  0  0  0  0  0  0  0  0  0  0  0
  -27.8565    2.1823   27.0652 C   0  0  0  0  0  0  0  0  0  0  0  0
  -26.7158    2.1243   26.0197 C   0  0  0  0  0  0  0  0  0  0  0  0
  -30.4230   -3.0433   30.5844 C   0  0  0  0  0  0  0  0  0  0  0  0
  -30.2426   -4.3918   30.4954 C   0  0  0  0  0  0  0  0  0  0  0  0
  -30.9636   -5.0700   29.8335 O   0  0  0  0  0  0  0  0  0  0  0  0
  -29.2773   -5.1146   31.1535 O   0  0  0  0  0  0  0  0  0  0  0  0
  -24.6577   -0.8831   31.4045 C   0  0  0  0  0  0  0  0  0  0  0  0
  -25.7176   -0.9338   31.9357 F   0  0  0  0  0  0  0  0  0  0  0  0
  -24.1880   -2.1018   31.2254 F   0  0  0  0  0  0  0  0  0  0  0  0
  -23.7659   -0.2366   32.1035 F   0  0  0  0  0  0  0  0  0  0  0  0
  1  2  2  0
  2  3  1  0
  2  4  1  0
  3  5  1  0
  4 12  1  0
  4 13  1  0
 12 17  1  0
 17 18  1  0
 18 19  2  0
 18 20  1  0
 10 21  1  0
 21 22  1  0
 21 23  1  0
 21 24  1  0
  5  6  2  0
  7 14  2  0
 14 16  1  0
 16 15  2  0
 15  5  1  0
  6  7  1  0
  7  8  1  0
  8  9  2  0
  9 10  1  0
 10 11  2  0
 11  6  1  0
M  END

$$$$
