No_4307-gen_results/8p0m/2024-11-27-11-27-31/
     RDKit          3D

 29 32  0  0  0  0  0  0  0  0999 V2000
  -28.0727   -1.2542   28.5316 F   0  0  0  0  0  0  0  0  0  0  0  0
  -27.3591   -0.3792   28.7224 C   0  0  0  0  0  0  0  0  0  0  0  0
  -26.8100    0.1885   27.6513 C   0  0  0  0  0  0  0  0  0  0  0  0
  -25.6015    0.9529   27.6828 C   0  0  0  0  0  0  0  0  0  0  0  0
  -24.8881    1.5328   26.5873 C   0  0  0  0  0  0  0  0  0  0  0  0
  -23.6888    2.2595   26.7241 C   0  0  0  0  0  0  0  0  0  0  0  0
  -22.9533    2.0974   27.8861 C   0  0  0  0  0  0  0  0  0  0  0  0
  -23.4899    1.3640   28.9697 C   0  0  0  0  0  0  0  0  0  0  0  0
  -24.7375    0.7605   28.7865 C   0  0  0  0  0  0  0  0  0  0  0  0
  -26.9492    0.0427   30.1017 C   0  0  0  0  0  0  0  0  0  0  0  0
  -25.4652    0.3835   30.1474 C   0  0  0  0  0  0  0  0  0  0  0  0
  -27.3287    0.0415   26.4611 O   0  0  0  0  0  0  0  0  0  0  0  0
  -28.4407    0.6732   26.1006 C   0  0  0  0  0  0  0  0  0  0  0  0
  -29.0037    0.2964   24.9443 C   0  0  0  0  0  0  0  0  0  0  0  0
  -30.2738    0.7470   24.5352 C   0  0  0  0  0  0  0  0  0  0  0  0
  -29.1321    1.5989   26.8293 C   0  0  0  0  0  0  0  0  0  0  0  0
  -30.2735    2.1821   26.5255 C   0  0  0  0  0  0  0  0  0  0  0  0
  -30.8530    1.7881   25.2556 C   0  0  0  0  0  0  0  0  0  0  0  0
  -32.3245    2.4353   24.6903 Cl  0  0  0  0  0  0  0  0  0  0  0  0
  -24.8073    0.6375   31.4306 C   0  0  0  0  0  0  0  0  0  0  0  0
  -25.3148    1.7375   32.2043 C   0  0  0  0  0  0  0  0  0  0  0  0
  -23.9194   -0.3349   31.8226 C   0  0  0  0  0  0  0  0  0  0  0  0
  -24.9122    3.0506   31.8524 C   0  0  0  0  0  0  0  0  0  0  0  0
  -25.2662    4.1473   32.7411 C   0  0  0  0  0  0  0  0  0  0  0  0
  -26.0800    3.9100   33.8414 C   0  0  0  0  0  0  0  0  0  0  0  0
  -26.1106    1.4331   33.3316 C   0  0  0  0  0  0  0  0  0  0  0  0
  -26.4836    2.6114   34.1085 C   0  0  0  0  0  0  0  0  0  0  0  0
  -24.7224    5.7264   32.3426 Cl  0  0  0  0  0  0  0  0  0  0  0  0
  -22.9914   -0.7350   31.1203 O   0  0  0  0  0  0  0  0  0  0  0  0
  1  2  1  0
  3 12  1  0
 12 13  1  0
 18 19  1  0
 11 20  1  0
 20 21  1  0
 20 22  1  0
 24 28  1  0
 22 29  2  0
 13 14  2  0
 14 15  1  0
 15 18  2  0
 18 17  1  0
 17 16  2  0
 16 13  1  0
 21 23  2  0
 23 24  1  0
 24 25  2  0
 25 27  1  0
 27 26  2  0
 26 21  1  0
  2  3  2  0
  3  4  1  0
  9 11  1  0
 11 10  2  0
 10  2  1  0
  4  5  2  0
  5  6  1  0
  6  7  2  0
  7  8  1  0
  8  9  2  0
  9  4  1  0
M  END

$$$$
