No_4398-gen_results/8p0m/2024-11-27-11-27-31/
     RDKit          3D

 26 30  0  0  0  0  0  0  0  0999 V2000
  -28.0162   -0.8135   28.8779 C   0  0  0  0  0  0  0  0  0  0  0  0
  -28.4690   -0.7850   29.8287 C   0  0  0  0  0  0  0  0  0  0  0  0
  -26.6082   -0.9454   28.8569 N   0  0  0  0  0  0  0  0  0  0  0  0
  -26.1169   -1.1514   30.1215 C   0  0  0  0  0  0  0  0  0  0  0  0
  -30.0074   -0.6393   29.8510 N   0  0  0  0  0  0  0  0  0  0  0  0
  -26.7045   -1.2212   31.2117 N   0  0  0  0  0  0  0  0  0  0  0  0
  -28.0393   -1.0574   31.0771 C   0  0  0  0  0  0  0  0  0  0  0  0
  -30.7952   -0.4047   29.1460 C   0  0  0  0  0  0  0  0  0  0  0  0
  -30.3238    0.2295   27.7117 Cl  0  0  0  0  0  0  0  0  0  0  0  0
  -32.2096   -0.6326   29.2752 C   0  0  0  0  0  0  0  0  0  0  0  0
  -32.5884   -1.2573   30.2942 C   0  0  0  0  0  0  0  0  0  0  0  0
  -31.6836   -1.5879   31.3644 C   0  0  0  0  0  0  0  0  0  0  0  0
  -30.4512   -1.1872   31.2730 C   0  0  0  0  0  0  0  0  0  0  0  0
  -29.0691   -1.2647   31.9854 N   0  0  0  0  0  0  0  0  0  0  0  0
  -24.6528   -1.3442   30.2438 N   0  0  0  0  0  0  0  0  0  0  0  0
  -23.9173   -1.9412   29.3123 C   0  0  0  0  0  0  0  0  0  0  0  0
  -23.9980   -0.7615   31.3399 C   0  0  0  0  0  0  0  0  0  0  0  0
  -23.1846    0.4471   31.1321 C   0  0  0  0  0  0  0  0  0  0  0  0
  -22.2933    0.2604   29.9385 C   0  0  0  0  0  0  0  0  0  0  0  0
  -22.8172   -0.7417   28.9390 C   0  0  0  0  0  0  0  0  0  0  0  0
  -34.0133   -1.5124   30.6096 C   0  0  0  0  0  0  0  0  0  0  0  0
  -34.5042   -1.6012   31.7195 C   0  0  0  0  0  0  0  0  0  0  0  0
  -35.9175   -1.8818   31.9828 C   0  0  0  0  0  0  0  0  0  0  0  0
  -36.6866   -2.0255   30.8315 C   0  0  0  0  0  0  0  0  0  0  0  0
  -36.1683   -1.9425   29.6062 C   0  0  0  0  0  0  0  0  0  0  0  0
  -34.8582   -1.6784   29.4339 C   0  0  0  0  0  0  0  0  0  0  0  0
  2  5  1  0
  5  8  1  0
  8  9  1  0
  8 10  1  0
 11 12  1  0
  5 13  1  0
 13 14  1  0
  4 15  1  0
 15 16  1  0
 15 17  1  0
 17 18  1  0
 18 19  1  0
 16 20  1  0
 19 20  1  0
 11 21  1  0
 14  7  1  0
 10 11  1  0
 12 13  1  0
 21 22  2  0
 22 23  1  0
 23 24  2  0
 24 25  1  0
 25 26  2  0
 26 21  1  0
  1  2  2  0
  2  7  1  0
  7  6  2  0
  6  4  1  0
  4  3  2  0
  3  1  1  0
M  END

$$$$
