No_4534-gen_results/8p0m/2024-11-27-11-27-31/
     RDKit          3D

 16 17  0  0  0  0  0  0  0  0999 V2000
  -28.0544   -1.0498   28.7246 N   0  0  0  0  0  0  0  0  0  0  0  0
  -26.9659   -0.4722   28.7709 C   0  0  0  0  0  0  0  0  0  0  0  0
  -26.4477    0.3414   27.9328 C   0  0  0  0  0  0  0  0  0  0  0  0
  -27.3171    0.7634   26.8203 C   0  0  0  0  0  0  0  0  0  0  0  0
  -28.5568    0.2440   26.8337 C   0  0  0  0  0  0  0  0  0  0  0  0
  -28.9457   -0.5269   27.8558 C   0  0  0  0  0  0  0  0  0  0  0  0
  -29.3812    0.6641   25.8117 N   0  0  0  0  0  0  0  0  0  0  0  0
  -26.0770   -0.9141   29.7955 F   0  0  0  0  0  0  0  0  0  0  0  0
  -24.9940    0.8374   27.9678 C   0  0  0  0  0  0  0  0  0  0  0  0
  -24.0806    0.2683   28.6696 C   0  0  0  0  0  0  0  0  0  0  0  0
  -22.7463    0.8580   28.6939 C   0  0  0  0  0  0  0  0  0  0  0  0
  -21.6572    0.3653   29.3815 C   0  0  0  0  0  0  0  0  0  0  0  0
  -21.9824   -0.8335   30.1524 C   0  0  0  0  0  0  0  0  0  0  0  0
  -23.2597   -1.3309   30.2258 C   0  0  0  0  0  0  0  0  0  0  0  0
  -24.2337   -0.8259   29.4727 C   0  0  0  0  0  0  0  0  0  0  0  0
  -24.4446   -2.0043   28.2949 C   0  0  0  0  0  0  0  0  0  0  0  0
  5  7  1  0
  2  8  1  0
  3  9  1  0
 15 16  1  0
  9 10  1  0
  1  2  2  0
  2  3  1  0
  3  4  2  0
  4  5  1  0
  5  6  2  0
  6  1  1  0
 10 11  2  0
 11 12  1  0
 12 13  2  0
 13 14  1  0
 14 15  2  0
 15 10  1  0
M  END

$$$$
