No_4988-gen_results/8p0m/2024-11-27-11-27-31/
     RDKit          3D

 30 33  0  0  0  0  0  0  0  0999 V2000
  -28.0162   -0.8135   28.8779 C   0  0  0  0  0  0  0  0  0  0  0  0
  -27.0636   -0.1190   28.6079 C   0  0  0  0  0  0  0  0  0  0  0  0
  -26.9716    0.7139   27.5060 C   0  0  0  0  0  0  0  0  0  0  0  0
  -28.1053    0.7744   26.6421 C   0  0  0  0  0  0  0  0  0  0  0  0
  -29.2041    0.1179   27.0477 C   0  0  0  0  0  0  0  0  0  0  0  0
  -29.2127   -0.6088   28.1281 C   0  0  0  0  0  0  0  0  0  0  0  0
  -30.5638    0.2475   26.0224 Cl  0  0  0  0  0  0  0  0  0  0  0  0
  -25.6995    1.4455   27.1228 C   0  0  0  0  0  0  0  0  0  0  0  0
  -24.6612    1.0215   27.8703 C   0  0  0  0  0  0  0  0  0  0  0  0
  -23.3743    1.7984   27.6984 C   0  0  0  0  0  0  0  0  0  0  0  0
  -22.3341    1.4878   28.5387 N   0  0  0  0  0  0  0  0  0  0  0  0
  -23.2062    2.5936   26.8046 F   0  0  0  0  0  0  0  0  0  0  0  0
  -22.3521    0.5066   29.4383 C   0  0  0  0  0  0  0  0  0  0  0  0
  -23.5698   -0.1655   29.7352 C   0  0  0  0  0  0  0  0  0  0  0  0
  -24.6422    0.1249   28.8874 C   0  0  0  0  0  0  0  0  0  0  0  0
  -25.8061   -0.3857   29.2823 N   0  0  0  0  0  0  0  0  0  0  0  0
  -25.9061   -1.2710   30.4252 C   0  0  0  0  0  0  0  0  0  0  0  0
  -25.7427    2.2278   26.1651 O   0  0  0  0  0  0  0  0  0  0  0  0
  -26.2651   -0.6997   31.6510 C   0  0  0  0  0  0  0  0  0  0  0  0
  -25.6833   -2.6124   30.1789 C   0  0  0  0  0  0  0  0  0  0  0  0
  -26.7008    0.4970   31.9670 C   0  0  0  0  0  0  0  0  0  0  0  0
  -26.5277    1.4642   31.5212 C   0  0  0  0  0  0  0  0  0  0  0  0
  -26.9371    2.8448   31.8564 C   0  0  0  0  0  0  0  0  0  0  0  0
  -27.6848    2.9050   33.0062 C   0  0  0  0  0  0  0  0  0  0  0  0
  -27.9564    1.7367   33.7325 C   0  0  0  0  0  0  0  0  0  0  0  0
  -27.4703    0.5336   33.2866 C   0  0  0  0  0  0  0  0  0  0  0  0
  -26.6284    4.0466   31.0875 C   0  0  0  0  0  0  0  0  0  0  0  0
  -26.5109    4.0054   29.8474 C   0  0  0  0  0  0  0  0  0  0  0  0
  -26.1712    5.2188   29.0885 C   0  0  0  0  0  0  0  0  0  0  0  0
  -25.9214    5.2711   27.6688 C   0  0  0  0  0  0  0  0  0  0  0  0
  5  7  1  0
  3  8  1  0
  8  9  1  0
 10 12  1  0
  2 16  1  0
 15 16  1  0
 16 17  1  0
  8 18  2  0
 17 19  1  0
 17 20  1  0
 19 21  1  0
 23 27  1  0
 27 28  2  3
 28 29  1  0
 29 30  1  0
  1  2  2  0
  2  3  1  0
  3  4  2  0
  4  5  1  0
  5  6  2  0
  6  1  1  0
  9 10  2  0
 10 11  1  0
 11 13  2  0
 13 14  1  0
 14 15  2  0
 15  9  1  0
 21 22  2  0
 22 23  1  0
 23 24  2  0
 24 25  1  0
 25 26  2  0
 26 21  1  0
M  END

$$$$
