No_4886-gen_results/8p0m/2024-11-27-11-27-31/
     RDKit          3D

 17 18  0  0  0  0  0  0  0  0999 V2000
  -28.0162   -0.8135   28.8779 C   0  0  0  0  0  0  0  0  0  0  0  0
  -28.4690   -0.7850   29.8287 C   0  0  0  0  0  0  0  0  0  0  0  0
  -27.0871    0.2903   28.6377 C   0  0  0  0  0  0  0  0  0  0  0  0
  -26.8317    1.2487   29.5869 C   0  0  0  0  0  0  0  0  0  0  0  0
  -28.3914    0.0801   31.0065 C   0  0  0  0  0  0  0  0  0  0  0  0
  -27.4940    1.1521   30.7841 C   0  0  0  0  0  0  0  0  0  0  0  0
  -26.3172    0.3994   27.3653 C   0  0  0  0  0  0  0  0  0  0  0  0
  -24.9405    0.2550   27.5028 C   0  0  0  0  0  0  0  0  0  0  0  0
  -26.9129    0.5860   26.1397 C   0  0  0  0  0  0  0  0  0  0  0  0
  -28.2688    0.7168   25.9850 C   0  0  0  0  0  0  0  0  0  0  0  0
  -29.0446    1.0761   26.9575 C   0  0  0  0  0  0  0  0  0  0  0  0
  -30.2015    1.4678   26.7639 C   0  0  0  0  0  0  0  0  0  0  0  0
  -31.0658    1.9533   27.8363 C   0  0  0  0  0  0  0  0  0  0  0  0
  -30.5458    1.9004   29.1095 C   0  0  0  0  0  0  0  0  0  0  0  0
  -29.2805    1.5509   29.3677 C   0  0  0  0  0  0  0  0  0  0  0  0
  -28.5824    1.3913   28.0178 C   0  0  0  0  0  0  0  0  0  0  0  0
  -27.8532    2.8865   27.9537 C   0  0  0  0  0  0  0  0  0  0  0  0
  3  7  1  0
  7  8  1  0
  7  9  1  0
  9 10  1  0
 10 11  1  0
 16 17  1  0
 11 12  2  0
 12 13  1  0
 13 14  2  0
 14 15  1  0
 15 16  2  0
 16 11  1  0
  1  2  2  0
  2  5  1  0
  5  6  2  0
  6  4  1  0
  4  3  2  0
  3  1  1  0
M  END

$$$$
