No_4082-gen_results/8p0m/2024-11-27-11-27-31/
     RDKit          3D

 35 37  0  0  0  0  0  0  0  0999 V2000
  -28.0162   -0.8135   28.8779 C   0  0  0  0  0  0  0  0  0  0  0  0
  -28.4690   -0.7850   29.8287 C   0  0  0  0  0  0  0  0  0  0  0  0
  -26.5455   -0.8762   28.8500 C   0  0  0  0  0  0  0  0  0  0  0  0
  -25.6825   -0.7773   27.6829 C   0  0  0  0  0  0  0  0  0  0  0  0
  -27.9181   -1.0034   31.1877 C   0  0  0  0  0  0  0  0  0  0  0  0
  -26.5308   -1.0794   31.2463 C   0  0  0  0  0  0  0  0  0  0  0  0
  -25.7798   -1.0462   30.0905 C   0  0  0  0  0  0  0  0  0  0  0  0
  -25.2322    0.5793   27.3292 C   0  0  0  0  0  0  0  0  0  0  0  0
  -25.9027    1.5335   27.4253 C   0  0  0  0  0  0  0  0  0  0  0  0
  -25.3348    2.8671   27.0802 C   0  0  0  0  0  0  0  0  0  0  0  0
  -24.0033    2.9885   26.6466 C   0  0  0  0  0  0  0  0  0  0  0  0
  -23.2328    1.8380   26.6116 C   0  0  0  0  0  0  0  0  0  0  0  0
  -23.8065    0.5810   26.9916 C   0  0  0  0  0  0  0  0  0  0  0  0
  -24.3748   -1.1302   30.1718 C   0  0  0  0  0  0  0  0  0  0  0  0
  -23.3958   -0.1612   30.3904 C   0  0  0  0  0  0  0  0  0  0  0  0
  -23.8208   -2.4657   29.6640 C   0  0  0  0  0  0  0  0  0  0  0  0
  -22.0629   -0.2845   30.1936 C   0  0  0  0  0  0  0  0  0  0  0  0
  -21.5856   -1.4242   29.5152 C   0  0  0  0  0  0  0  0  0  0  0  0
  -22.4476   -2.4585   29.2813 C   0  0  0  0  0  0  0  0  0  0  0  0
  -23.9389    1.1778   31.0152 C   0  0  0  0  0  0  0  0  0  0  0  0
  -24.5179    1.3088   32.0268 O   0  0  0  0  0  0  0  0  0  0  0  0
  -23.6950    2.2781   30.2097 O   0  0  0  0  0  0  0  0  0  0  0  0
  -29.8825   -0.7579   29.9228 F   0  0  0  0  0  0  0  0  0  0  0  0
  -24.9649   -3.7352   29.5180 Br  0  0  0  0  0  0  0  0  0  0  0  0
  -28.7675   -1.0360   32.4211 C   0  0  0  0  0  0  0  0  0  0  0  0
  -29.1234   -0.1581   33.0355 O   0  0  0  0  0  0  0  0  0  0  0  0
  -28.8570   -2.2878   32.8600 O   0  0  0  0  0  0  0  0  0  0  0  0
  -26.1935    4.1158   27.1661 C   0  0  0  0  0  0  0  0  0  0  0  0
  -27.3129    4.0405   26.9218 O   0  0  0  0  0  0  0  0  0  0  0  0
  -25.5649    5.2218   27.4715 O   0  0  0  0  0  0  0  0  0  0  0  0
  -26.3022    6.3824   27.6740 C   0  0  0  0  0  0  0  0  0  0  0  0
  -25.5503    7.5329   27.5518 C   0  0  0  0  0  0  0  0  0  0  0  0
  -24.2401    7.4567   27.8723 C   0  0  0  0  0  0  0  0  0  0  0  0
  -26.1342    8.7418   28.3200 C   0  0  0  0  0  0  0  0  0  0  0  0
  -25.6347    7.9522   26.0028 C   0  0  0  0  0  0  0  0  0  0  0  0
  3  4  1  0
  4  8  1  0
  7 14  1  0
 15 20  1  0
 20 21  2  0
 20 22  1  0
  2 23  1  0
 16 24  1  0
  5 25  1  0
 25 26  2  0
 25 27  1  0
 10 28  1  0
 28 29  2  0
 28 30  1  0
 30 31  1  0
 31 32  1  0
 32 33  1  0
 32 34  1  0
 32 35  1  0
 14 15  2  0
 15 17  1  0
 17 18  2  0
 18 19  1  0
 19 16  2  0
 16 14  1  0
  8  9  2  0
  9 10  1  0
 10 11  2  0
 11 12  1  0
 12 13  2  0
 13  8  1  0
  1  2  2  0
  2  5  1  0
  5  6  2  0
  6  7  1  0
  7  3  2  0
  3  1  1  0
M  END

$$$$
