No_4211-gen_results/8p0m/2024-11-27-11-27-31/
     RDKit          3D

 17 18  0  0  0  0  0  0  0  0999 V2000
  -28.0162   -0.8135   28.8779 C   0  0  0  0  0  0  0  0  0  0  0  0
  -27.0636   -0.1190   28.6079 C   0  0  0  0  0  0  0  0  0  0  0  0
  -25.7923   -0.4302   29.0761 C   0  0  0  0  0  0  0  0  0  0  0  0
  -25.5756   -1.5654   29.9363 C   0  0  0  0  0  0  0  0  0  0  0  0
  -26.7354   -2.3004   30.2173 C   0  0  0  0  0  0  0  0  0  0  0  0
  -27.9184   -1.9537   29.7629 C   0  0  0  0  0  0  0  0  0  0  0  0
  -27.1057    1.1023   27.7593 C   0  0  0  0  0  0  0  0  0  0  0  0
  -26.1219    1.4820   27.0232 C   0  0  0  0  0  0  0  0  0  0  0  0
  -24.7142    1.1299   27.4889 C   0  0  0  0  0  0  0  0  0  0  0  0
  -24.5718    0.0966   28.4066 C   0  0  0  0  0  0  0  0  0  0  0  0
  -23.5476    1.7679   26.9015 C   0  0  0  0  0  0  0  0  0  0  0  0
  -22.6300    2.5498   26.9360 N   0  0  0  0  0  0  0  0  0  0  0  0
  -29.0722   -2.7459   30.2593 C   0  0  0  0  0  0  0  0  0  0  0  0
  -29.0213   -3.9759   30.4250 O   0  0  0  0  0  0  0  0  0  0  0  0
  -30.2020   -2.1567   30.4669 O   0  0  0  0  0  0  0  0  0  0  0  0
  -23.3770   -0.2561   28.7803 O   0  0  0  0  0  0  0  0  0  0  0  0
  -28.3416    1.4832   27.4419 F   0  0  0  0  0  0  0  0  0  0  0  0
  2  7  1  0
  8  9  1  0
  3 10  1  0
  9 10  1  0
  9 11  1  0
 11 12  3  0
  6 13  1  0
 13 14  2  0
 13 15  1  0
 10 16  2  0
  7 17  1  0
  7  8  1  0
  1  2  2  0
  2  3  1  0
  3  4  2  0
  4  5  1  0
  5  6  2  0
  6  1  1  0
M  END

$$$$
