No_4157-gen_results/8p0m/2024-11-27-11-27-31/
     RDKit          3D

 15 16  0  0  0  0  0  0  0  0999 V2000
  -28.0162   -0.8135   28.8779 C   0  0  0  0  0  0  0  0  0  0  0  0
  -28.4690   -0.7850   29.8287 C   0  0  0  0  0  0  0  0  0  0  0  0
  -27.0871    0.2903   28.6377 C   0  0  0  0  0  0  0  0  0  0  0  0
  -26.0239    0.3644   29.2526 C   0  0  0  0  0  0  0  0  0  0  0  0
  -24.9536    1.2658   28.9526 C   0  0  0  0  0  0  0  0  0  0  0  0
  -29.4201   -1.9635   30.1650 C   0  0  0  0  0  0  0  0  0  0  0  0
  -25.0087    2.0124   27.7636 C   0  0  0  0  0  0  0  0  0  0  0  0
  -26.1211    1.8564   26.9530 C   0  0  0  0  0  0  0  0  0  0  0  0
  -27.0881    0.9401   27.3008 C   0  0  0  0  0  0  0  0  0  0  0  0
  -29.5446   -2.3933   31.3972 C   0  0  0  0  0  0  0  0  0  0  0  0
  -30.3239   -3.6001   31.6673 C   0  0  0  0  0  0  0  0  0  0  0  0
  -30.8782   -4.2613   30.5953 C   0  0  0  0  0  0  0  0  0  0  0  0
  -30.7115   -3.7711   29.3393 C   0  0  0  0  0  0  0  0  0  0  0  0
  -29.9650   -2.6867   29.2087 N   0  0  0  0  0  0  0  0  0  0  0  0
  -27.9642   -0.4184   31.1815 C   0  0  0  0  0  0  0  0  0  0  0  0
  1  2  1  0
  1  3  1  0
  2  6  1  0
  2 15  1  0
  3  4  2  0
  4  5  1  0
  5  7  2  0
  7  8  1  0
  8  9  2  0
  9  3  1  0
  6 10  2  0
 10 11  1  0
 11 12  2  0
 12 13  1  0
 13 14  2  0
 14  6  1  0
M  END

$$$$
