No_4026-gen_results/8p0m/2024-11-27-11-27-31/
     RDKit          3D

 17 18  0  0  0  0  0  0  0  0999 V2000
  -28.0162   -0.8135   28.8779 C   0  0  0  0  0  0  0  0  0  0  0  0
  -28.4690   -0.7850   29.8287 C   0  0  0  0  0  0  0  0  0  0  0  0
  -26.5455   -0.8762   28.8500 C   0  0  0  0  0  0  0  0  0  0  0  0
  -25.8041   -1.0324   30.0571 C   0  0  0  0  0  0  0  0  0  0  0  0
  -27.9437   -0.9869   31.2075 C   0  0  0  0  0  0  0  0  0  0  0  0
  -24.4008   -1.0969   30.0965 C   0  0  0  0  0  0  0  0  0  0  0  0
  -26.5612   -1.0746   31.2270 C   0  0  0  0  0  0  0  0  0  0  0  0
  -23.6345   -0.8923   29.0458 C   0  0  0  0  0  0  0  0  0  0  0  0
  -22.1743   -0.7863   29.1506 C   0  0  0  0  0  0  0  0  0  0  0  0
  -21.6088    0.4081   28.9496 C   0  0  0  0  0  0  0  0  0  0  0  0
  -22.0805    1.3783   28.0013 C   0  0  0  0  0  0  0  0  0  0  0  0
  -21.5069    2.5230   27.7057 C   0  0  0  0  0  0  0  0  0  0  0  0
  -23.4810    1.1790   27.6027 C   0  0  0  0  0  0  0  0  0  0  0  0
  -24.1820    0.6188   28.6748 C   0  0  0  0  0  0  0  0  0  0  0  0
  -29.9253   -0.7123   29.8829 F   0  0  0  0  0  0  0  0  0  0  0  0
  -24.0531    1.5811   26.4636 C   0  0  0  0  0  0  0  0  0  0  0  0
  -25.2093    1.2806   26.0429 C   0  0  0  0  0  0  0  0  0  0  0  0
  4  6  1  0
 11 12  1  0
  2 15  1  0
 13 16  1  0
 16 17  2  0
  6  8  1  0
  8  9  2  0
  9 10  1  0
 10 11  2  0
 11 13  1  0
 13 14  2  0
 14  8  1  0
  1  2  2  0
  2  5  1  0
  5  7  2  0
  7  4  1  0
  4  3  2  0
  3  1  1  0
M  END

$$$$
