No_4800-gen_results/8p0m/2024-11-27-11-27-31/
     RDKit          3D

 17 18  0  0  0  0  0  0  0  0999 V2000
  -28.1229   -1.3353   28.4874 O   0  0  0  0  0  0  0  0  0  0  0  0
  -27.4806   -0.4044   28.7094 C   0  0  0  0  0  0  0  0  0  0  0  0
  -27.1904    0.2460   29.5268 C   0  0  0  0  0  0  0  0  0  0  0  0
  -26.7282   -0.1238   27.4073 F   0  0  0  0  0  0  0  0  0  0  0  0
  -26.2623    1.3699   29.6678 C   0  0  0  0  0  0  0  0  0  0  0  0
  -25.9232    2.1331   30.6673 C   0  0  0  0  0  0  0  0  0  0  0  0
  -26.4835    1.7866   31.9470 C   0  0  0  0  0  0  0  0  0  0  0  0
  -27.3434    0.7022   31.9954 C   0  0  0  0  0  0  0  0  0  0  0  0
  -27.6341   -0.0418   30.9649 C   0  0  0  0  0  0  0  0  0  0  0  0
  -24.9967    3.2565   30.6259 C   0  0  0  0  0  0  0  0  0  0  0  0
  -24.6036    3.7262   31.6045 O   0  0  0  0  0  0  0  0  0  0  0  0
  -24.8841    3.7900   29.5268 O   0  0  0  0  0  0  0  0  0  0  0  0
  -27.8838    0.3497   33.3889 C   0  0  0  0  0  0  0  0  0  0  0  0
  -28.8779   -0.5683   33.8192 Cl  0  0  0  0  0  0  0  0  0  0  0  0
  -26.8647    0.8447   34.2640 C   0  0  0  0  0  0  0  0  0  0  0  0
  -26.4629    2.0245   34.3857 N   0  0  0  0  0  0  0  0  0  0  0  0
  -26.0326    2.5103   33.0117 C   0  0  0  0  0  0  0  0  0  0  0  0
  1  2  2  0
  2  3  1  0
  2  4  1  0
  6 10  1  0
 10 11  2  0
 10 12  1  0
  8 13  1  0
 13 14  1  0
 13 15  1  0
 15 16  1  0
  7 17  1  0
 16 17  1  0
  3  5  2  0
  5  6  1  0
  6  7  2  0
  7  8  1  0
  8  9  2  0
  9  3  1  0
M  END

$$$$
