No_4186-gen_results/8p0m/2024-11-27-11-27-31/
     RDKit          3D

 21 22  0  0  0  0  0  0  0  0999 V2000
  -28.1229   -1.3353   28.4874 O   0  0  0  0  0  0  0  0  0  0  0  0
  -27.4806   -0.4044   28.7094 C   0  0  0  0  0  0  0  0  0  0  0  0
  -26.3804   -0.0867   27.9394 C   0  0  0  0  0  0  0  0  0  0  0  0
  -27.3894   -0.0361   30.0376 F   0  0  0  0  0  0  0  0  0  0  0  0
  -25.9212    1.2221   28.0015 C   0  0  0  0  0  0  0  0  0  0  0  0
  -24.4840    1.3612   28.4327 C   0  0  0  0  0  0  0  0  0  0  0  0
  -23.7254    0.2446   28.6058 C   0  0  0  0  0  0  0  0  0  0  0  0
  -24.3228   -1.0305   28.4923 C   0  0  0  0  0  0  0  0  0  0  0  0
  -25.4143   -1.0268   27.7948 C   0  0  0  0  0  0  0  0  0  0  0  0
  -22.2467    0.3634   28.9267 C   0  0  0  0  0  0  0  0  0  0  0  0
  -21.7048   -0.4041   29.8063 N   0  0  0  0  0  0  0  0  0  0  0  0
  -21.5599    1.1812   28.2362 O   0  0  0  0  0  0  0  0  0  0  0  0
  -26.7154    2.3369   27.8828 C   0  0  0  0  0  0  0  0  0  0  0  0
  -27.7888    2.4116   27.8194 C   0  0  0  0  0  0  0  0  0  0  0  0
  -28.5725    3.6148   27.5394 C   0  0  0  0  0  0  0  0  0  0  0  0
  -25.9841    3.6306   27.6109 C   0  0  0  0  0  0  0  0  0  0  0  0
  -26.5417    4.8349   27.3822 C   0  0  0  0  0  0  0  0  0  0  0  0
  -27.9131    4.8132   27.3302 C   0  0  0  0  0  0  0  0  0  0  0  0
  -25.7436    6.0618   27.2433 C   0  0  0  0  0  0  0  0  0  0  0  0
  -25.6754    6.8524   28.0515 O   0  0  0  0  0  0  0  0  0  0  0  0
  -24.6287    5.9118   26.4479 O   0  0  0  0  0  0  0  0  0  0  0  0
  1  2  2  0
  2  3  1  0
  2  4  1  0
  7 10  1  0
 10 11  1  0
 10 12  2  0
  5 13  1  0
 17 19  1  0
 19 20  2  0
 19 21  1  0
 13 14  2  0
 14 15  1  0
 15 18  2  0
 18 17  1  0
 17 16  2  0
 16 13  1  0
  3  5  2  0
  5  6  1  0
  6  7  2  0
  7  8  1  0
  8  9  2  0
  9  3  1  0
M  END

$$$$
