No_4777-gen_results/8p0m/2024-11-27-11-27-31/
     RDKit          3D

 22 23  0  0  0  0  0  0  0  0999 V2000
  -28.0162   -0.8135   28.8779 C   0  0  0  0  0  0  0  0  0  0  0  0
  -28.4690   -0.7850   29.8287 C   0  0  0  0  0  0  0  0  0  0  0  0
  -26.5042   -0.7777   28.8766 C   0  0  0  0  0  0  0  0  0  0  0  0
  -25.6540   -0.6597   27.7191 C   0  0  0  0  0  0  0  0  0  0  0  0
  -27.9180   -0.9374   31.1824 C   0  0  0  0  0  0  0  0  0  0  0  0
  -26.5423   -0.9399   31.2606 C   0  0  0  0  0  0  0  0  0  0  0  0
  -25.7832   -0.8935   30.1201 C   0  0  0  0  0  0  0  0  0  0  0  0
  -25.8989    0.3149   26.7473 C   0  0  0  0  0  0  0  0  0  0  0  0
  -24.9195    0.8239   26.0056 C   0  0  0  0  0  0  0  0  0  0  0  0
  -24.1528    1.7966   26.1517 C   0  0  0  0  0  0  0  0  0  0  0  0
  -24.2422    2.6135   27.3578 C   0  0  0  0  0  0  0  0  0  0  0  0
  -27.2413    0.7569   26.5397 C   0  0  0  0  0  0  0  0  0  0  0  0
  -27.8330    1.7172   27.2810 C   0  0  0  0  0  0  0  0  0  0  0  0
  -27.9008    0.1848   25.4155 C   0  0  0  0  0  0  0  0  0  0  0  0
  -29.2728    0.3338   25.1586 C   0  0  0  0  0  0  0  0  0  0  0  0
  -29.2808    2.0147   27.0048 C   0  0  0  0  0  0  0  0  0  0  0  0
  -29.8766    1.3636   25.9185 C   0  0  0  0  0  0  0  0  0  0  0  0
  -30.0801   -0.7425   29.9527 C   0  0  0  0  0  0  0  0  0  0  0  0
  -30.6941   -1.6311   29.4703 O   0  0  0  0  0  0  0  0  0  0  0  0
  -30.5960    0.1578   30.8154 N   0  0  0  0  0  0  0  0  0  0  0  0
  -31.7371    0.6511   30.7787 C   0  0  0  0  0  0  0  0  0  0  0  0
  -31.4862    1.7097   25.4780 Cl  0  0  0  0  0  0  0  0  0  0  0  0
  3  4  1  0
  4  8  1  0
  8  9  2  3
  9 10  1  0
 10 11  1  0
  8 12  1  0
  2 18  1  0
 18 19  2  0
 18 20  1  0
 20 21  1  0
 17 22  1  0
  1  2  2  0
  2  5  1  0
  5  6  2  0
  6  7  1  0
  7  3  2  0
  3  1  1  0
 12 13  2  0
 13 16  1  0
 16 17  2  0
 17 15  1  0
 15 14  2  0
 14 12  1  0
M  END

$$$$
