No_4515-gen_results/8p0m/2024-11-27-11-27-31/
     RDKit          3D

 26 27  0  0  0  0  0  0  0  0999 V2000
  -28.0162   -0.8135   28.8779 C   0  0  0  0  0  0  0  0  0  0  0  0
  -27.0636   -0.1190   28.6079 C   0  0  0  0  0  0  0  0  0  0  0  0
  -25.7923   -0.4302   29.0761 C   0  0  0  0  0  0  0  0  0  0  0  0
  -25.5756   -1.5654   29.9363 C   0  0  0  0  0  0  0  0  0  0  0  0
  -26.7354   -2.3004   30.2173 C   0  0  0  0  0  0  0  0  0  0  0  0
  -27.9184   -1.9537   29.7629 C   0  0  0  0  0  0  0  0  0  0  0  0
  -29.0001   -2.7012   30.1151 O   0  0  0  0  0  0  0  0  0  0  0  0
  -24.5290    0.3490   28.7998 C   0  0  0  0  0  0  0  0  0  0  0  0
  -24.4588    1.1825   27.8542 N   0  0  0  0  0  0  0  0  0  0  0  0
  -23.3251    1.7499   27.4110 C   0  0  0  0  0  0  0  0  0  0  0  0
  -22.1215    1.4597   28.0065 N   0  0  0  0  0  0  0  0  0  0  0  0
  -23.2967   -0.0395   29.4121 C   0  0  0  0  0  0  0  0  0  0  0  0
  -22.0756    0.6207   28.9928 C   0  0  0  0  0  0  0  0  0  0  0  0
  -23.3288    2.7042   26.4449 N   0  0  0  0  0  0  0  0  0  0  0  0
  -30.1174   -2.1262   30.5917 C   0  0  0  0  0  0  0  0  0  0  0  0
  -31.1955   -2.6790   30.1157 C   0  0  0  0  0  0  0  0  0  0  0  0
  -31.3267   -4.0205   29.9672 C   0  0  0  0  0  0  0  0  0  0  0  0
  -30.5861   -4.7740   30.4517 O   0  0  0  0  0  0  0  0  0  0  0  0
  -31.6117   -1.9864   28.8615 O   0  0  0  0  0  0  0  0  0  0  0  0
  -32.1742   -4.6579   29.0799 N   0  0  0  0  0  0  0  0  0  0  0  0
  -33.1107   -3.9898   28.2622 C   0  0  0  0  0  0  0  0  0  0  0  0
  -31.6383   -0.6711   28.8007 C   0  0  0  0  0  0  0  0  0  0  0  0
  -31.6765   -0.0994   27.4715 C   0  0  0  0  0  0  0  0  0  0  0  0
  -31.3145    1.2065   27.3435 C   0  0  0  0  0  0  0  0  0  0  0  0
  -31.0983    1.7821   26.0763 C   0  0  0  0  0  0  0  0  0  0  0  0
  -31.3465    0.9741   24.9376 C   0  0  0  0  0  0  0  0  0  0  0  0
  6  7  1  0
  3  8  1  0
 10 14  1  0
  7 15  1  0
 15 16  1  0
 16 17  1  0
 17 18  2  0
 16 19  1  0
 17 20  1  0
 20 21  1  0
 19 22  1  0
 22 23  2  3
 23 24  1  0
 24 25  2  3
 25 26  1  0
  1  2  2  0
  2  3  1  0
  3  4  2  0
  4  5  1  0
  5  6  2  0
  6  1  1  0
  8  9  2  0
  9 10  1  0
 10 11  2  0
 11 13  1  0
 13 12  2  0
 12  8  1  0
M  END

$$$$
