No_4871-gen_results/8p0m/2024-11-27-11-27-31/
     RDKit          3D

 35 37  0  0  0  0  0  0  0  0999 V2000
  -28.0162   -0.8135   28.8779 C   0  0  0  0  0  0  0  0  0  0  0  0
  -28.4690   -0.7850   29.8287 C   0  0  0  0  0  0  0  0  0  0  0  0
  -26.5042   -0.7777   28.8766 C   0  0  0  0  0  0  0  0  0  0  0  0
  -25.8103   -0.8531   30.1028 C   0  0  0  0  0  0  0  0  0  0  0  0
  -27.9906   -0.8916   31.2257 C   0  0  0  0  0  0  0  0  0  0  0  0
  -26.6042   -0.8676   31.2652 C   0  0  0  0  0  0  0  0  0  0  0  0
  -24.3894   -0.8049   30.1638 C   0  0  0  0  0  0  0  0  0  0  0  0
  -23.8172    0.4762   29.9118 C   0  0  0  0  0  0  0  0  0  0  0  0
  -22.5010    0.5449   29.4097 C   0  0  0  0  0  0  0  0  0  0  0  0
  -22.1455   -0.1848   28.5241 C   0  0  0  0  0  0  0  0  0  0  0  0
  -22.4956   -1.6099   28.7836 C   0  0  0  0  0  0  0  0  0  0  0  0
  -23.6110   -1.8864   29.6145 C   0  0  0  0  0  0  0  0  0  0  0  0
  -23.9594   -1.0139   31.7937 C   0  0  0  0  0  0  0  0  0  0  0  0
  -25.5944   -0.7181   27.4460 Cl  0  0  0  0  0  0  0  0  0  0  0  0
  -30.0366   -0.7186   29.6441 C   0  0  0  0  0  0  0  0  0  0  0  0
  -30.4229   -0.2684   28.7284 O   0  0  0  0  0  0  0  0  0  0  0  0
  -30.7868   -1.4336   30.5094 O   0  0  0  0  0  0  0  0  0  0  0  0
  -24.4144    1.7590   30.4916 C   0  0  0  0  0  0  0  0  0  0  0  0
  -24.3530    2.1322   31.5550 O   0  0  0  0  0  0  0  0  0  0  0  0
  -25.2691    2.3731   29.5507 N   0  0  0  0  0  0  0  0  0  0  0  0
  -26.0413    3.6091   29.9157 C   0  0  0  0  0  0  0  0  0  0  0  0
  -26.8666    3.5779   30.6573 C   0  0  0  0  0  0  0  0  0  0  0  0
  -27.5551    2.8638   31.2586 C   0  0  0  0  0  0  0  0  0  0  0  0
  -28.6376    2.9688   32.2234 C   0  0  0  0  0  0  0  0  0  0  0  0
  -28.9922    4.2433   32.4748 C   0  0  0  0  0  0  0  0  0  0  0  0
  -28.3215    5.2841   31.9305 C   0  0  0  0  0  0  0  0  0  0  0  0
  -27.3028    5.0908   31.0568 C   0  0  0  0  0  0  0  0  0  0  0  0
  -25.4798    4.5407   29.1452 O   0  0  0  0  0  0  0  0  0  0  0  0
  -31.8109   -0.3004   28.2916 C   0  0  0  0  0  0  0  0  0  0  0  0
  -32.1326    0.7845   27.4114 C   0  0  0  0  0  0  0  0  0  0  0  0
  -33.3057    0.7469   27.0732 F   0  0  0  0  0  0  0  0  0  0  0  0
  -31.3508    0.7463   26.2710 F   0  0  0  0  0  0  0  0  0  0  0  0
  -31.9225    1.9963   27.9825 F   0  0  0  0  0  0  0  0  0  0  0  0
  -32.5051   -0.1719   29.4048 F   0  0  0  0  0  0  0  0  0  0  0  0
  -32.0855   -1.5200   27.8031 F   0  0  0  0  0  0  0  0  0  0  0  0
  4  7  1  0
  7  8  1  0
  9 10  1  0
  7 12  1  0
 11 12  1  0
  7 13  1  0
  3 14  1  0
  2 15  1  0
 15 16  1  0
 15 17  2  0
  8 18  1  0
 18 19  2  0
 18 20  1  0
 20 21  1  0
 21 22  1  0
 21 28  2  0
 16 29  1  0
 29 30  1  0
 30 31  1  0
 30 32  1  0
 30 33  1  0
 29 34  1  0
 29 35  1  0
  8  9  1  0
 10 11  1  0
 22 23  2  0
 23 24  1  0
 24 25  2  0
 25 26  1  0
 26 27  2  0
 27 22  1  0
  1  2  2  0
  2  5  1  0
  5  6  2  0
  6  4  1  0
  4  3  2  0
  3  1  1  0
M  END

$$$$
