No_4210-gen_results/8p0m/2024-11-27-11-27-31/
     RDKit          3D

 28 28  0  0  0  0  0  0  0  0999 V2000
  -28.0162   -0.8135   28.8779 C   0  0  0  0  0  0  0  0  0  0  0  0
  -27.0636   -0.1190   28.6079 C   0  0  0  0  0  0  0  0  0  0  0  0
  -25.7923   -0.4302   29.0761 C   0  0  0  0  0  0  0  0  0  0  0  0
  -24.5456    0.3494   28.8225 C   0  0  0  0  0  0  0  0  0  0  0  0
  -24.6586    1.4196   27.8878 C   0  0  0  0  0  0  0  0  0  0  0  0
  -25.9471    1.6811   27.3792 C   0  0  0  0  0  0  0  0  0  0  0  0
  -27.0439    0.9739   27.6871 C   0  0  0  0  0  0  0  0  0  0  0  0
  -28.6567   -0.5529   30.0960 N   0  0  0  0  0  0  0  0  0  0  0  0
  -29.6293   -1.2869   30.6343 C   0  0  0  0  0  0  0  0  0  0  0  0
  -30.1912   -2.2456   29.9703 C   0  0  0  0  0  0  0  0  0  0  0  0
  -31.2400   -2.7706   30.5689 O   0  0  0  0  0  0  0  0  0  0  0  0
  -23.4528    2.1621   27.6034 C   0  0  0  0  0  0  0  0  0  0  0  0
  -22.3235    1.8705   28.0624 O   0  0  0  0  0  0  0  0  0  0  0  0
  -23.5604    3.0249   26.5760 O   0  0  0  0  0  0  0  0  0  0  0  0
  -31.7782   -3.8402   30.1043 C   0  0  0  0  0  0  0  0  0  0  0  0
  -32.5173   -4.5517   30.9736 C   0  0  0  0  0  0  0  0  0  0  0  0
  -33.2136   -4.2708   31.7453 O   0  0  0  0  0  0  0  0  0  0  0  0
  -32.6159   -6.0104   30.5922 N   0  0  0  0  0  0  0  0  0  0  0  0
  -32.7011   -3.5355   28.8897 C   0  0  0  0  0  0  0  0  0  0  0  0
  -32.3671   -2.6142   28.2249 O   0  0  0  0  0  0  0  0  0  0  0  0
  -33.3376   -1.9140   27.4332 C   0  0  0  0  0  0  0  0  0  0  0  0
  -32.7010   -1.1743   26.4630 C   0  0  0  0  0  0  0  0  0  0  0  0
  -32.7832   -0.0468   26.2474 C   0  0  0  0  0  0  0  0  0  0  0  0
  -31.9988    0.8931   26.3247 C   0  0  0  0  0  0  0  0  0  0  0  0
  -30.9007    1.0043   26.6237 C   0  0  0  0  0  0  0  0  0  0  0  0
  -29.9615    2.0974   26.8409 C   0  0  0  0  0  0  0  0  0  0  0  0
  -30.5108    3.3122   26.6442 C   0  0  0  0  0  0  0  0  0  0  0  0
  -31.8359    3.4724   26.1683 C   0  0  0  0  0  0  0  0  0  0  0  0
  1  2  1  0
  1  8  1  0
  8  9  1  0
  9 10  1  0
 10 11  1  0
  5 12  1  0
 12 13  2  0
 12 14  1  0
 11 15  1  0
 15 16  2  3
 16 17  1  0
 16 18  1  0
 15 19  1  0
 19 20  1  0
 20 21  1  0
 21 22  2  3
 22 23  1  0
 23 24  2  3
 24 25  1  0
 25 26  2  3
 26 27  1  0
 27 28  2  0
  2  3  2  0
  3  4  1  0
  4  5  2  0
  5  6  1  0
  6  7  2  0
  7  2  1  0
M  END

$$$$
