No_4266-gen_results/8p0m/2024-11-27-11-27-31/
     RDKit          3D

 15 15  0  0  0  0  0  0  0  0999 V2000
  -28.0162   -0.8135   28.8779 C   0  0  0  0  0  0  0  0  0  0  0  0
  -27.0636   -0.1189   28.6079 C   0  0  0  0  0  0  0  0  0  0  0  0
  -26.9716    0.7139   27.5060 C   0  0  0  0  0  0  0  0  0  0  0  0
  -28.1053    0.7744   26.6421 C   0  0  0  0  0  0  0  0  0  0  0  0
  -29.2008    0.1044   27.0527 C   0  0  0  0  0  0  0  0  0  0  0  0
  -29.2096   -0.6029   28.1853 C   0  0  0  0  0  0  0  0  0  0  0  0
  -30.4845    0.1494   26.3508 C   0  0  0  0  0  0  0  0  0  0  0  0
  -31.4043   -0.4930   26.6129 O   0  0  0  0  0  0  0  0  0  0  0  0
  -30.5211    0.8884   25.1901 O   0  0  0  0  0  0  0  0  0  0  0  0
  -25.6803   -0.2192   29.4028 C   0  0  0  0  0  0  0  0  0  0  0  0
  -24.5849   -0.0187   28.9205 N   0  0  0  0  0  0  0  0  0  0  0  0
  -23.4268   -0.1611   29.6538 C   0  0  0  0  0  0  0  0  0  0  0  0
  -22.1793    0.1805   29.0430 C   0  0  0  0  0  0  0  0  0  0  0  0
  -22.2763    0.9794   27.8916 C   0  0  0  0  0  0  0  0  0  0  0  0
  -23.4200    1.3043   27.2093 C   0  0  0  0  0  0  0  0  0  0  0  0
  5  7  1  0
  7  8  1  0
  7  9  2  0
  2 10  1  0
 10 11  2  3
 11 12  1  0
 12 13  2  3
 13 14  1  0
 14 15  2  0
  1  2  2  0
  2  3  1  0
  3  4  2  0
  4  5  1  0
  5  6  2  0
  6  1  1  0
M  END

$$$$
