No_4549-gen_results/8p0m/2024-11-27-11-27-31/
     RDKit          3D

 17 18  0  0  0  0  0  0  0  0999 V2000
  -28.0162   -0.8135   28.8779 C   0  0  0  0  0  0  0  0  0  0  0  0
  -28.4690   -0.7850   29.8287 C   0  0  0  0  0  0  0  0  0  0  0  0
  -26.5455   -0.8762   28.8500 C   0  0  0  0  0  0  0  0  0  0  0  0
  -25.8041   -1.0324   30.0571 C   0  0  0  0  0  0  0  0  0  0  0  0
  -27.9437   -0.9869   31.2075 C   0  0  0  0  0  0  0  0  0  0  0  0
  -26.5825   -1.0386   31.2231 C   0  0  0  0  0  0  0  0  0  0  0  0
  -30.0606   -0.7371   29.9024 C   0  0  0  0  0  0  0  0  0  0  0  0
  -30.7252   -1.5544   30.2697 O   0  0  0  0  0  0  0  0  0  0  0  0
  -30.5512    0.3780   29.3541 O   0  0  0  0  0  0  0  0  0  0  0  0
  -24.1297   -1.1091   30.0727 Cl  0  0  0  0  0  0  0  0  0  0  0  0
  -25.6722   -0.7923   27.6135 C   0  0  0  0  0  0  0  0  0  0  0  0
  -26.0117    0.1673   26.6384 C   0  0  0  0  0  0  0  0  0  0  0  0
  -25.1235    0.4739   25.6678 C   0  0  0  0  0  0  0  0  0  0  0  0
  -26.8942    1.1918   26.8003 C   0  0  0  0  0  0  0  0  0  0  0  0
  -27.1554    2.1334   25.8583 C   0  0  0  0  0  0  0  0  0  0  0  0
  -25.2197    1.3752   24.6502 C   0  0  0  0  0  0  0  0  0  0  0  0
  -26.2683    2.2413   24.7920 C   0  0  0  0  0  0  0  0  0  0  0  0
  2  7  1  0
  7  8  2  0
  7  9  1  0
  4 10  1  0
  3 11  1  0
 11 12  1  0
  1  2  2  0
  2  5  1  0
  5  6  2  0
  6  4  1  0
  4  3  2  0
  3  1  1  0
 12 13  2  0
 13 16  1  0
 16 17  2  0
 17 15  1  0
 15 14  2  0
 14 12  1  0
M  END

$$$$
