No_421-gen_results/8p0m/2024-11-27-11-27-31/
     RDKit          3D

 15 15  0  0  0  0  0  0  0  0999 V2000
  -28.0162   -0.8135   28.8779 C   0  0  0  0  0  0  0  0  0  0  0  0
  -27.0636   -0.1190   28.6079 C   0  0  0  0  0  0  0  0  0  0  0  0
  -25.7923   -0.4302   29.0761 C   0  0  0  0  0  0  0  0  0  0  0  0
  -25.5756   -1.5654   29.9363 C   0  0  0  0  0  0  0  0  0  0  0  0
  -26.7354   -2.3004   30.2173 C   0  0  0  0  0  0  0  0  0  0  0  0
  -27.9184   -1.9537   29.7629 C   0  0  0  0  0  0  0  0  0  0  0  0
  -27.1059    1.0338   27.8185 N   0  0  0  0  0  0  0  0  0  0  0  0
  -26.5121    2.0879   27.8509 C   0  0  0  0  0  0  0  0  0  0  0  0
  -26.8216    3.2102   28.1578 C   0  0  0  0  0  0  0  0  0  0  0  0
  -25.9486    4.4225   28.1866 C   0  0  0  0  0  0  0  0  0  0  0  0
  -24.6322    4.2179   27.7143 C   0  0  0  0  0  0  0  0  0  0  0  0
  -25.0016    2.0164   27.2758 F   0  0  0  0  0  0  0  0  0  0  0  0
  -24.2769    2.9509   27.2259 C   0  0  0  0  0  0  0  0  0  0  0  0
  -23.0074    2.8051   26.7143 F   0  0  0  0  0  0  0  0  0  0  0  0
  -24.1329    2.8226   26.2281 F   0  0  0  0  0  0  0  0  0  0  0  0
  2  7  1  0
  7  8  1  0
  8  9  2  3
  9 10  1  0
 10 11  2  3
  8 12  1  0
 11 13  1  0
 13 14  1  0
 13 15  1  0
  1  2  2  0
  2  3  1  0
  3  4  2  0
  4  5  1  0
  5  6  2  0
  6  1  1  0
M  END

$$$$
