No_4751-gen_results/8p0m/2024-11-27-11-27-31/
     RDKit          3D

 19 20  0  0  0  0  0  0  0  0999 V2000
  -28.0162   -0.8135   28.8779 C   0  0  0  0  0  0  0  0  0  0  0  0
  -27.0636   -0.1189   28.6079 C   0  0  0  0  0  0  0  0  0  0  0  0
  -25.7647   -0.3897   29.0360 C   0  0  0  0  0  0  0  0  0  0  0  0
  -25.5296   -1.5302   29.9014 C   0  0  0  0  0  0  0  0  0  0  0  0
  -26.6888   -2.2893   30.1810 C   0  0  0  0  0  0  0  0  0  0  0  0
  -27.8727   -1.9508   29.7373 C   0  0  0  0  0  0  0  0  0  0  0  0
  -29.1941   -2.9228   30.2191 Cl  0  0  0  0  0  0  0  0  0  0  0  0
  -24.5326    0.4193   28.7249 C   0  0  0  0  0  0  0  0  0  0  0  0
  -24.5743    0.9362   27.5795 F   0  0  0  0  0  0  0  0  0  0  0  0
  -23.3791   -0.3777   28.7110 F   0  0  0  0  0  0  0  0  0  0  0  0
  -24.3113    1.3444   29.6438 F   0  0  0  0  0  0  0  0  0  0  0  0
  -27.3933    0.9215   27.7848 N   0  0  0  0  0  0  0  0  0  0  0  0
  -27.7517    1.9649   28.2483 C   0  0  0  0  0  0  0  0  0  0  0  0
  -27.2550    0.7267   26.3302 C   0  0  0  0  0  0  0  0  0  0  0  0
  -27.9803    3.0981   27.5031 C   0  0  0  0  0  0  0  0  0  0  0  0
  -26.9032   -0.3283   25.6914 C   0  0  0  0  0  0  0  0  0  0  0  0
  -27.5148    1.8853   25.5408 C   0  0  0  0  0  0  0  0  0  0  0  0
  -27.8758    3.1102   26.1328 C   0  0  0  0  0  0  0  0  0  0  0  0
  -26.3212   -0.2224   24.5302 C   0  0  0  0  0  0  0  0  0  0  0  0
  6  7  1  0
  3  8  1  0
  8  9  1  0
  8 10  1  0
  8 11  1  0
  2 12  1  0
 12 13  1  0
 12 14  1  0
 14 16  1  0
 14 17  1  0
 15 18  1  0
 16 19  2  0
 13 15  1  0
 18 17  1  0
  1  2  2  0
  2  3  1  0
  3  4  2  0
  4  5  1  0
  5  6  2  0
  6  1  1  0
M  END

$$$$
