No_4112-gen_results/8p0m/2024-11-27-11-27-31/
     RDKit          3D

 19 20  0  0  0  0  0  0  0  0999 V2000
  -28.0162   -0.8135   28.8779 C   0  0  0  0  0  0  0  0  0  0  0  0
  -28.4690   -0.7850   29.8287 C   0  0  0  0  0  0  0  0  0  0  0  0
  -26.5042   -0.7777   28.8766 C   0  0  0  0  0  0  0  0  0  0  0  0
  -25.8103   -0.8531   30.1028 C   0  0  0  0  0  0  0  0  0  0  0  0
  -27.9906   -0.8916   31.2257 C   0  0  0  0  0  0  0  0  0  0  0  0
  -26.6042   -0.8676   31.2652 C   0  0  0  0  0  0  0  0  0  0  0  0
  -29.9765   -0.8288   29.8497 N   0  0  0  0  0  0  0  0  0  0  0  0
  -30.5795   -0.1232   28.9820 C   0  0  0  0  0  0  0  0  0  0  0  0
  -31.8655   -0.6748   28.4847 C   0  0  0  0  0  0  0  0  0  0  0  0
  -30.7114   -1.7353   30.6572 C   0  0  0  0  0  0  0  0  0  0  0  0
  -31.9661   -2.1692   30.2350 C   0  0  0  0  0  0  0  0  0  0  0  0
  -32.5768   -1.5456   29.2252 C   0  0  0  0  0  0  0  0  0  0  0  0
  -25.7151   -0.6124   27.3719 Cl  0  0  0  0  0  0  0  0  0  0  0  0
  -33.8060   -1.8798   28.8869 O   0  0  0  0  0  0  0  0  0  0  0  0
  -32.4758    0.0728   27.3392 C   0  0  0  0  0  0  0  0  0  0  0  0
  -31.6804    0.3005   26.2862 C   0  0  0  0  0  0  0  0  0  0  0  0
  -30.3331    0.0188   26.2698 C   0  0  0  0  0  0  0  0  0  0  0  0
  -29.5949    0.3769   25.0511 C   0  0  0  0  0  0  0  0  0  0  0  0
  -30.2985    0.8099   23.9806 C   0  0  0  0  0  0  0  0  0  0  0  0
  2  7  1  0
  7  8  1  0
  7 10  1  0
  9 12  1  0
 11 12  1  0
  3 13  1  0
 12 14  2  0
  9 15  1  0
 15 16  2  3
 16 17  1  0
 17 18  2  3
 18 19  1  0
  8  9  1  0
 11 10  1  0
  1  2  2  0
  2  5  1  0
  5  6  2  0
  6  4  1  0
  4  3  2  0
  3  1  1  0
M  END

$$$$
