No_4156-gen_results/8p0m/2024-11-27-11-27-31/
     RDKit          3D

 25 26  0  0  0  0  0  0  0  0999 V2000
  -28.0162   -0.8135   28.8779 C   0  0  0  0  0  0  0  0  0  0  0  0
  -27.0636   -0.1190   28.6079 C   0  0  0  0  0  0  0  0  0  0  0  0
  -26.9716    0.7139   27.5060 C   0  0  0  0  0  0  0  0  0  0  0  0
  -25.8205    1.4909   27.1160 C   0  0  0  0  0  0  0  0  0  0  0  0
  -24.6562    1.4242   27.9180 C   0  0  0  0  0  0  0  0  0  0  0  0
  -24.7114    0.5419   29.0507 C   0  0  0  0  0  0  0  0  0  0  0  0
  -25.8042   -0.2058   29.3881 C   0  0  0  0  0  0  0  0  0  0  0  0
  -28.0673   -1.5382   30.1911 C   0  0  0  0  0  0  0  0  0  0  0  0
  -26.8381   -1.7680   30.8773 C   0  0  0  0  0  0  0  0  0  0  0  0
  -25.7411   -1.0297   30.5541 C   0  0  0  0  0  0  0  0  0  0  0  0
  -27.7899    0.7099   26.3721 C   0  0  0  0  0  0  0  0  0  0  0  0
  -28.8908    0.3042   26.3746 N   0  0  0  0  0  0  0  0  0  0  0  0
  -27.1757    1.0122   24.7809 Cl  0  0  0  0  0  0  0  0  0  0  0  0
  -29.8737    0.8749   27.0914 C   0  0  0  0  0  0  0  0  0  0  0  0
  -31.1035    0.2618   27.1840 N   0  0  0  0  0  0  0  0  0  0  0  0
  -29.8311    2.1106   27.4439 O   0  0  0  0  0  0  0  0  0  0  0  0
  -32.2323    0.7526   27.9403 C   0  0  0  0  0  0  0  0  0  0  0  0
  -23.4242    0.4907   29.8671 C   0  0  0  0  0  0  0  0  0  0  0  0
  -22.3697   -0.2212   29.5215 Cl  0  0  0  0  0  0  0  0  0  0  0  0
  -23.5843    1.2154   31.0635 O   0  0  0  0  0  0  0  0  0  0  0  0
  -31.3415   -1.0451   26.6340 C   0  0  0  0  0  0  0  0  0  0  0  0
  -31.9717   -1.0877   25.3652 C   0  0  0  0  0  0  0  0  0  0  0  0
  -31.7951   -2.3351   24.7490 C   0  0  0  0  0  0  0  0  0  0  0  0
  -31.4447   -0.0284   24.4672 C   0  0  0  0  0  0  0  0  0  0  0  0
  -33.5159   -0.8950   25.5236 C   0  0  0  0  0  0  0  0  0  0  0  0
  3 11  1  0
 11 12  1  0
 11 13  1  0
 12 14  1  0
 14 15  1  0
 14 16  2  0
 15 17  1  0
  6 18  1  0
 18 19  1  0
 18 20  2  0
 15 21  1  0
 21 22  1  0
 22 23  1  0
 22 24  1  0
 22 25  1  0
  2  3  1  0
  3  4  2  0
  4  5  1  0
  5  6  2  0
  6  7  1  0
  1  2  2  0
  2  7  1  0
  7 10  2  0
 10  9  1  0
  9  8  2  0
  8  1  1  0
M  END

$$$$
