No_4202-gen_results/8p0m/2024-11-27-11-27-31/
     RDKit          3D

 35 38  0  0  0  0  0  0  0  0999 V2000
  -28.0162   -0.8135   28.8779 C   0  0  0  0  0  0  0  0  0  0  0  0
  -27.0636   -0.1190   28.6079 C   0  0  0  0  0  0  0  0  0  0  0  0
  -25.7647   -0.3897   29.0360 C   0  0  0  0  0  0  0  0  0  0  0  0
  -25.5296   -1.5303   29.9014 C   0  0  0  0  0  0  0  0  0  0  0  0
  -26.6888   -2.2893   30.1810 C   0  0  0  0  0  0  0  0  0  0  0  0
  -27.8727   -1.9508   29.7373 C   0  0  0  0  0  0  0  0  0  0  0  0
  -28.8984   -2.7212   30.0727 F   0  0  0  0  0  0  0  0  0  0  0  0
  -24.5420    0.4303   28.7469 C   0  0  0  0  0  0  0  0  0  0  0  0
  -24.5385    1.2872   27.7172 C   0  0  0  0  0  0  0  0  0  0  0  0
  -23.3354    2.0020   27.3968 C   0  0  0  0  0  0  0  0  0  0  0  0
  -22.1435    1.7581   28.0423 C   0  0  0  0  0  0  0  0  0  0  0  0
  -23.2985    0.1547   29.3680 C   0  0  0  0  0  0  0  0  0  0  0  0
  -22.1054    0.8375   29.0310 C   0  0  0  0  0  0  0  0  0  0  0  0
  -23.2311    2.8530   26.3557 O   0  0  0  0  0  0  0  0  0  0  0  0
  -23.2999    2.2590   25.1742 C   0  0  0  0  0  0  0  0  0  0  0  0
  -27.1731    0.9676   27.7568 O   0  0  0  0  0  0  0  0  0  0  0  0
  -27.6339    0.8752   26.4844 C   0  0  0  0  0  0  0  0  0  0  0  0
  -28.3870    1.8861   26.0311 C   0  0  0  0  0  0  0  0  0  0  0  0
  -29.6453    1.8768   26.1775 C   0  0  0  0  0  0  0  0  0  0  0  0
  -30.4200    2.8215   25.5672 C   0  0  0  0  0  0  0  0  0  0  0  0
  -31.8363    2.9074   25.5836 C   0  0  0  0  0  0  0  0  0  0  0  0
  -32.4541    1.9499   26.3077 C   0  0  0  0  0  0  0  0  0  0  0  0
  -31.7815    0.9752   26.9634 C   0  0  0  0  0  0  0  0  0  0  0  0
  -30.4357    0.9213   26.8983 C   0  0  0  0  0  0  0  0  0  0  0  0
  -32.5783    0.2999   27.8020 O   0  0  0  0  0  0  0  0  0  0  0  0
  -32.5312   -1.0213   27.7799 C   0  0  0  0  0  0  0  0  0  0  0  0
  -33.7134   -1.7181   28.0802 C   0  0  0  0  0  0  0  0  0  0  0  0
  -33.6435   -3.1070   27.9961 C   0  0  0  0  0  0  0  0  0  0  0  0
  -32.3933   -3.7206   27.6305 C   0  0  0  0  0  0  0  0  0  0  0  0
  -31.3511   -3.0110   27.1966 C   0  0  0  0  0  0  0  0  0  0  0  0
  -31.3802   -1.6766   27.3105 C   0  0  0  0  0  0  0  0  0  0  0  0
  -32.4367   -5.2374   27.5292 C   0  0  0  0  0  0  0  0  0  0  0  0
  -31.1666   -5.7793   27.6374 C   0  0  0  0  0  0  0  0  0  0  0  0
  -33.1991   -5.8396   28.5718 N   0  0  0  0  0  0  0  0  0  0  0  0
  -33.2047   -6.7556   29.0240 C   0  0  0  0  0  0  0  0  0  0  0  0
  6  7  1  0
  3  8  1  0
 10 14  1  0
 14 15  1  0
  2 16  1  0
 16 17  1  0
 17 18  1  0
 18 19  1  0
 23 25  1  0
 25 26  1  0
 29 32  1  0
 32 33  1  0
 32 34  1  0
 34 35  1  0
 26 27  2  0
 27 28  1  0
 28 29  2  0
 29 30  1  0
 30 31  2  0
 31 26  1  0
  1  2  2  0
  2  3  1  0
  3  4  2  0
  4  5  1  0
  5  6  2  0
  6  1  1  0
 19 20  2  0
 20 21  1  0
 21 22  2  0
 22 23  1  0
 23 24  2  0
 24 19  1  0
  8  9  2  0
  9 10  1  0
 10 11  2  0
 11 13  1  0
 13 12  2  0
 12  8  1  0
M  END

$$$$
