No_425-gen_results/8p0m/2024-11-27-11-27-31/
     RDKit          3D

 12 12  0  0  0  0  0  0  0  0999 V2000
  -28.0162   -0.8135   28.8779 C   0  0  0  0  0  0  0  0  0  0  0  0
  -27.0636   -0.1190   28.6079 C   0  0  0  0  0  0  0  0  0  0  0  0
  -27.0010    0.6913   27.4910 C   0  0  0  0  0  0  0  0  0  0  0  0
  -25.8548    1.4825   27.0830 C   0  0  0  0  0  0  0  0  0  0  0  0
  -24.6901    1.4526   27.8807 C   0  0  0  0  0  0  0  0  0  0  0  0
  -24.7379    0.6010   29.0416 C   0  0  0  0  0  0  0  0  0  0  0  0
  -25.8234   -0.1688   29.3887 C   0  0  0  0  0  0  0  0  0  0  0  0
  -29.2252   -0.0469   29.2805 C   0  0  0  0  0  0  0  0  0  0  0  0
  -30.1961   -0.7956   29.6552 O   0  0  0  0  0  0  0  0  0  0  0  0
  -29.1962    1.1145   29.5788 O   0  0  0  0  0  0  0  0  0  0  0  0
  -23.5241    2.2169   27.5634 C   0  0  0  0  0  0  0  0  0  0  0  0
  -22.5271    2.2356   28.3659 N   0  0  0  0  0  0  0  0  0  0  0  0
  1  2  1  0
  1  8  1  0
  8  9  1  0
  8 10  2  0
  5 11  1  0
 11 12  2  0
  2  3  2  0
  3  4  1  0
  4  5  2  0
  5  6  1  0
  6  7  2  0
  7  2  1  0
M  END

$$$$
