No_4184-gen_results/8p0m/2024-11-27-11-27-31/
     RDKit          3D

 26 28  0  0  0  0  0  0  0  0999 V2000
  -28.1493   -0.8198   28.9079 Cl  0  0  0  0  0  0  0  0  0  0  0  0
  -27.8339    0.4961   29.0598 C   0  0  0  0  0  0  0  0  0  0  0  0
  -27.6022    1.0128   30.2974 C   0  0  0  0  0  0  0  0  0  0  0  0
  -27.1699    2.3964   30.5338 C   0  0  0  0  0  0  0  0  0  0  0  0
  -26.9133    3.1827   29.3680 C   0  0  0  0  0  0  0  0  0  0  0  0
  -27.0551    2.6221   28.1384 C   0  0  0  0  0  0  0  0  0  0  0  0
  -27.4622    1.3345   27.9669 C   0  0  0  0  0  0  0  0  0  0  0  0
  -26.4513    4.5680   29.5808 C   0  0  0  0  0  0  0  0  0  0  0  0
  -27.1086    5.5538   29.3691 N   0  0  0  0  0  0  0  0  0  0  0  0
  -25.2057    4.7125   30.0396 O   0  0  0  0  0  0  0  0  0  0  0  0
  -26.5829    6.9807   29.5273 C   0  0  0  0  0  0  0  0  0  0  0  0
  -28.4426    5.5023   28.7807 C   0  0  0  0  0  0  0  0  0  0  0  0
  -26.6317    7.7573   28.7302 C   0  0  0  0  0  0  0  0  0  0  0  0
  -27.9957    8.0526   28.1426 C   0  0  0  0  0  0  0  0  0  0  0  0
  -28.6514    6.6943   27.7887 C   0  0  0  0  0  0  0  0  0  0  0  0
  -27.5925    0.8564   26.7374 O   0  0  0  0  0  0  0  0  0  0  0  0
  -27.4589    1.6114   25.7180 C   0  0  0  0  0  0  0  0  0  0  0  0
  -27.7151    0.9020   24.5468 C   0  0  0  0  0  0  0  0  0  0  0  0
  -28.9775    1.1955   23.9275 C   0  0  0  0  0  0  0  0  0  0  0  0
  -29.7246    2.2351   24.3345 C   0  0  0  0  0  0  0  0  0  0  0  0
  -29.1807    3.2368   25.2375 C   0  0  0  0  0  0  0  0  0  0  0  0
  -27.7802    2.9751   25.6550 C   0  0  0  0  0  0  0  0  0  0  0  0
  -30.8145    2.7013   23.4386 C   0  0  0  0  0  0  0  0  0  0  0  0
  -31.4655    1.8268   22.7455 N   0  0  0  0  0  0  0  0  0  0  0  0
  -32.5769    2.2243   22.0360 C   0  0  0  0  0  0  0  0  0  0  0  0
  -33.2188    1.4152   21.1824 C   0  0  0  0  0  0  0  0  0  0  0  0
  1  2  1  0
  5  8  1  0
  8  9  1  0
  8 10  2  0
  9 11  1  0
  9 12  1  0
 11 13  1  0
 13 14  1  0
 12 15  1  0
 14 15  1  0
  7 16  1  0
 16 17  1  0
 20 23  1  0
 23 24  2  3
 24 25  1  0
 25 26  2  0
 17 18  2  0
 18 19  1  0
 19 20  2  0
 20 21  1  0
 21 22  2  0
 22 17  1  0
  2  3  2  0
  3  4  1  0
  4  5  2  0
  5  6  1  0
  6  7  2  0
  7  2  1  0
M  END

$$$$
