No_4916-gen_results/8p0m/2024-11-27-11-27-31/
     RDKit          3D

 28 30  0  0  0  0  0  0  0  0999 V2000
  -28.0162   -0.8135   28.8779 C   0  0  0  0  0  0  0  0  0  0  0  0
  -28.4690   -0.7850   29.8287 C   0  0  0  0  0  0  0  0  0  0  0  0
  -26.5042   -0.7777   28.8766 C   0  0  0  0  0  0  0  0  0  0  0  0
  -25.8103   -0.8531   30.1028 C   0  0  0  0  0  0  0  0  0  0  0  0
  -27.9906   -0.8916   31.2257 C   0  0  0  0  0  0  0  0  0  0  0  0
  -26.6042   -0.8676   31.2652 C   0  0  0  0  0  0  0  0  0  0  0  0
  -24.3894   -0.8049   30.1638 C   0  0  0  0  0  0  0  0  0  0  0  0
  -23.8172    0.4762   29.9118 C   0  0  0  0  0  0  0  0  0  0  0  0
  -23.2476    0.8215   28.7226 C   0  0  0  0  0  0  0  0  0  0  0  0
  -21.9088    0.6359   28.5389 C   0  0  0  0  0  0  0  0  0  0  0  0
  -24.0384    1.5003   27.7700 C   0  0  0  0  0  0  0  0  0  0  0  0
  -23.4299    1.8417   26.5232 C   0  0  0  0  0  0  0  0  0  0  0  0
  -21.2762    1.0780   27.3265 C   0  0  0  0  0  0  0  0  0  0  0  0
  -22.0777    1.7655   26.4058 C   0  0  0  0  0  0  0  0  0  0  0  0
  -23.9911    1.4816   30.9954 C   0  0  0  0  0  0  0  0  0  0  0  0
  -30.1005   -0.7877   29.8255 C   0  0  0  0  0  0  0  0  0  0  0  0
  -30.7793   -1.5621   30.3106 O   0  0  0  0  0  0  0  0  0  0  0  0
  -30.5988    0.0262   28.7935 N   0  0  0  0  0  0  0  0  0  0  0  0
  -29.9397    1.0264   28.1339 C   0  0  0  0  0  0  0  0  0  0  0  0
  -29.7918    2.1744   28.8799 C   0  0  0  0  0  0  0  0  0  0  0  0
  -29.9439    3.2064   28.4717 C   0  0  0  0  0  0  0  0  0  0  0  0
  -29.8082    4.4636   29.3044 C   0  0  0  0  0  0  0  0  0  0  0  0
  -29.3692    4.3321   30.6068 C   0  0  0  0  0  0  0  0  0  0  0  0
  -29.0997    3.0475   31.1057 C   0  0  0  0  0  0  0  0  0  0  0  0
  -29.2550    1.9772   30.2732 C   0  0  0  0  0  0  0  0  0  0  0  0
  -29.7644    0.9630   26.7693 C   0  0  0  0  0  0  0  0  0  0  0  0
  -29.2562    0.2594   25.9953 N   0  0  0  0  0  0  0  0  0  0  0  0
  -29.1347    0.2904   24.6910 C   0  0  0  0  0  0  0  0  0  0  0  0
  4  7  1  0
  7  8  1  0
  8  9  1  0
  8 15  1  0
  2 16  1  0
 16 17  2  0
 16 18  1  0
 18 19  1  0
 19 20  1  0
 19 26  1  0
 26 27  1  0
 27 28  1  0
  9 10  2  0
 10 13  1  0
 13 14  2  0
 14 12  1  0
 12 11  2  0
 11  9  1  0
  1  2  2  0
  2  5  1  0
  5  6  2  0
  6  4  1  0
  4  3  2  0
  3  1  1  0
 20 21  2  0
 21 22  1  0
 22 23  2  0
 23 24  1  0
 24 25  2  0
 25 20  1  0
M  END

$$$$
