No_4784-gen_results/8p0m/2024-11-27-11-27-31/
     RDKit          3D

 14 15  0  0  0  0  0  0  0  0999 V2000
  -28.1229   -1.3353   28.4874 O   0  0  0  0  0  0  0  0  0  0  0  0
  -27.4806   -0.4044   28.7094 C   0  0  0  0  0  0  0  0  0  0  0  0
  -26.3804   -0.0867   27.9394 C   0  0  0  0  0  0  0  0  0  0  0  0
  -27.6664    0.4468   29.8988 N   0  0  0  0  0  0  0  0  0  0  0  0
  -25.8048    1.1658   28.0750 C   0  0  0  0  0  0  0  0  0  0  0  0
  -24.6514    1.6081   27.3233 C   0  0  0  0  0  0  0  0  0  0  0  0
  -23.9425    2.7904   27.7159 C   0  0  0  0  0  0  0  0  0  0  0  0
  -24.6048    3.6190   28.5955 C   0  0  0  0  0  0  0  0  0  0  0  0
  -25.7061    3.2943   29.2918 C   0  0  0  0  0  0  0  0  0  0  0  0
  -26.2735    2.0519   29.0845 C   0  0  0  0  0  0  0  0  0  0  0  0
  -27.1547    1.6557   29.9821 C   0  0  0  0  0  0  0  0  0  0  0  0
  -28.1694    2.5381   30.4089 C   0  0  0  0  0  0  0  0  0  0  0  0
  -28.8370    3.3898   29.8724 C   0  0  0  0  0  0  0  0  0  0  0  0
  -29.7104    4.3606   30.4319 C   0  0  0  0  0  0  0  0  0  0  0  0
  1  2  2  0
  2  3  1  0
  2  4  1  0
  4 11  1  0
 10 11  1  0
 11 12  1  0
 12 13  2  3
 13 14  1  0
  3  5  1  0
  5  6  2  0
  6  7  1  0
  7  8  2  0
  8  9  1  0
  9 10  2  0
 10  5  1  0
M  END

$$$$
