No_4304-gen_results/8p0m/2024-11-27-11-27-31/
     RDKit          3D

 35 37  0  0  0  0  0  0  0  0999 V2000
  -28.1229   -1.3353   28.4874 O   0  0  0  0  0  0  0  0  0  0  0  0
  -27.4806   -0.4044   28.7094 C   0  0  0  0  0  0  0  0  0  0  0  0
  -26.3804   -0.0867   27.9394 C   0  0  0  0  0  0  0  0  0  0  0  0
  -27.6664    0.4468   29.8988 N   0  0  0  0  0  0  0  0  0  0  0  0
  -26.4086    0.8567   26.8802 C   0  0  0  0  0  0  0  0  0  0  0  0
  -25.0824   -0.6970   28.1699 C   0  0  0  0  0  0  0  0  0  0  0  0
  -25.2842    1.0488   26.0470 C   0  0  0  0  0  0  0  0  0  0  0  0
  -23.8947   -0.3310   27.4777 C   0  0  0  0  0  0  0  0  0  0  0  0
  -24.0554    0.5635   26.3806 C   0  0  0  0  0  0  0  0  0  0  0  0
  -28.4764    0.3746   30.7121 C   0  0  0  0  0  0  0  0  0  0  0  0
  -28.4505    1.0559   31.7143 C   0  0  0  0  0  0  0  0  0  0  0  0
  -26.6147    1.3832   30.2848 C   0  0  0  0  0  0  0  0  0  0  0  0
  -26.9898    1.9166   31.4698 C   0  0  0  0  0  0  0  0  0  0  0  0
  -27.6730    1.4114   26.4608 C   0  0  0  0  0  0  0  0  0  0  0  0
  -28.3153    1.1745   25.4174 N   0  0  0  0  0  0  0  0  0  0  0  0
  -29.4995    1.3345   25.1333 C   0  0  0  0  0  0  0  0  0  0  0  0
  -28.0932    2.4217   27.2099 O   0  0  0  0  0  0  0  0  0  0  0  0
  -26.4816    2.9297   32.3687 C   0  0  0  0  0  0  0  0  0  0  0  0
  -26.7501    2.9231   33.4387 O   0  0  0  0  0  0  0  0  0  0  0  0
  -25.2868    3.5311   31.9009 N   0  0  0  0  0  0  0  0  0  0  0  0
  -24.6874    3.4745   30.6618 C   0  0  0  0  0  0  0  0  0  0  0  0
  -24.7656    4.6648   32.7193 C   0  0  0  0  0  0  0  0  0  0  0  0
  -25.2044    5.9778   32.2453 C   0  0  0  0  0  0  0  0  0  0  0  0
  -26.1006    6.5890   32.9599 C   0  0  0  0  0  0  0  0  0  0  0  0
  -27.1398    6.7590   32.6823 C   0  0  0  0  0  0  0  0  0  0  0  0
  -28.2163    7.5162   33.4452 C   0  0  0  0  0  0  0  0  0  0  0  0
  -27.7879    8.1049   34.6436 C   0  0  0  0  0  0  0  0  0  0  0  0
  -26.4742    7.9563   35.0359 C   0  0  0  0  0  0  0  0  0  0  0  0
  -25.5736    7.2308   34.2669 C   0  0  0  0  0  0  0  0  0  0  0  0
  -25.9937    8.5759   36.3205 C   0  0  0  0  0  0  0  0  0  0  0  0
  -25.1741    8.3553   36.8524 O   0  0  0  0  0  0  0  0  0  0  0  0
  -27.0176    9.3784   36.9098 O   0  0  0  0  0  0  0  0  0  0  0  0
  -27.8074   -0.0318   24.6008 C   0  0  0  0  0  0  0  0  0  0  0  0
  -29.5588    7.6318   32.9655 C   0  0  0  0  0  0  0  0  0  0  0  0
  -30.0930    7.0824   32.1088 O   0  0  0  0  0  0  0  0  0  0  0  0
  1  2  2  0
  2  3  1  0
  2  4  1  0
  4 10  1  0
 10 11  2  0
  4 12  1  0
 11 13  1  0
 12 13  2  0
  5 14  1  0
 14 15  1  0
 15 16  1  0
 14 17  2  0
 13 18  1  0
 18 19  2  0
 18 20  1  0
 20 21  1  0
 20 22  1  0
 22 23  1  0
 23 24  1  0
 28 30  1  0
 30 31  2  0
 30 32  1  0
 15 33  1  0
 26 34  1  0
 34 35  2  0
 24 25  2  0
 25 26  1  0
 26 27  2  0
 27 28  1  0
 28 29  2  0
 29 24  1  0
  3  5  2  0
  5  7  1  0
  7  9  2  0
  9  8  1  0
  8  6  2  0
  6  3  1  0
M  END

$$$$
