No_4831-gen_results/8p0m/2024-11-27-11-27-31/
     RDKit          3D

 35 36  0  0  0  0  0  0  0  0999 V2000
  -28.0162   -0.8135   28.8779 C   0  0  0  0  0  0  0  0  0  0  0  0
  -27.0636   -0.1189   28.6079 C   0  0  0  0  0  0  0  0  0  0  0  0
  -27.0010    0.6913   27.4910 C   0  0  0  0  0  0  0  0  0  0  0  0
  -25.8548    1.4825   27.0830 C   0  0  0  0  0  0  0  0  0  0  0  0
  -24.9008    1.3894   27.5922 C   0  0  0  0  0  0  0  0  0  0  0  0
  -24.6783    0.5764   28.8299 C   0  0  0  0  0  0  0  0  0  0  0  0
  -25.7704   -0.2051   29.2800 C   0  0  0  0  0  0  0  0  0  0  0  0
  -27.9632   -1.4284   30.2685 C   0  0  0  0  0  0  0  0  0  0  0  0
  -26.7397   -1.6492   30.9220 C   0  0  0  0  0  0  0  0  0  0  0  0
  -25.6307   -0.9399   30.4794 C   0  0  0  0  0  0  0  0  0  0  0  0
  -23.3360    0.5731   29.5025 C   0  0  0  0  0  0  0  0  0  0  0  0
  -23.3713    1.0806   30.6230 F   0  0  0  0  0  0  0  0  0  0  0  0
  -22.5327   -0.3151   29.2312 F   0  0  0  0  0  0  0  0  0  0  0  0
  -28.2575    0.7672   26.6261 C   0  0  0  0  0  0  0  0  0  0  0  0
  -28.2312    0.7887   25.4360 O   0  0  0  0  0  0  0  0  0  0  0  0
  -29.3870    0.3985   27.2045 O   0  0  0  0  0  0  0  0  0  0  0  0
  -22.6002    1.7714   28.9336 F   0  0  0  0  0  0  0  0  0  0  0  0
  -29.1264   -2.2601   30.7426 C   0  0  0  0  0  0  0  0  0  0  0  0
  -30.1403   -1.7892   30.9201 O   0  0  0  0  0  0  0  0  0  0  0  0
  -28.8848   -3.5301   30.9701 O   0  0  0  0  0  0  0  0  0  0  0  0
  -29.8578   -4.4848   30.7662 C   0  0  0  0  0  0  0  0  0  0  0  0
  -30.3210   -4.7738   29.5261 C   0  0  0  0  0  0  0  0  0  0  0  0
  -32.0102   -4.9370   29.2990 P   0  0  0  0  0  0  0  0  0  0  0  0
  -32.7629   -4.5204   29.8619 O   0  0  0  0  0  0  0  0  0  0  0  0
  -32.0785   -4.5290   27.6703 O   0  0  0  0  0  0  0  0  0  0  0  0
  -31.9999   -6.5481   29.0795 O   0  0  0  0  0  0  0  0  0  0  0  0
  -33.1313   -4.1961   27.0423 C   0  0  0  0  0  0  0  0  0  0  0  0
  -32.6998   -3.3285   26.0085 C   0  0  0  0  0  0  0  0  0  0  0  0
  -31.5266   -2.9135   25.8125 O   0  0  0  0  0  0  0  0  0  0  0  0
  -31.1555   -1.8859   24.7854 C   0  0  0  0  0  0  0  0  0  0  0  0
  -32.2437   -1.2236   24.2792 C   0  0  0  0  0  0  0  0  0  0  0  0
  -31.9002    0.0951   23.8115 C   0  0  0  0  0  0  0  0  0  0  0  0
  -30.6061    0.4070   23.8318 C   0  0  0  0  0  0  0  0  0  0  0  0
  -30.2010    1.7497   23.3827 C   0  0  0  0  0  0  0  0  0  0  0  0
  -31.2112    2.5853   22.8489 C   0  0  0  0  0  0  0  0  0  0  0  0
  6 11  1  0
 11 12  1  0
 11 13  1  0
  3 14  1  0
 14 15  2  0
 14 16  1  0
 11 17  1  0
  8 18  1  0
 18 19  2  0
 18 20  1  0
 20 21  1  0
 21 22  1  0
 22 23  1  0
 23 24  2  0
 23 25  1  0
 23 26  1  0
 25 27  1  0
 27 28  1  0
 28 29  1  0
 29 30  1  0
 30 31  1  0
 31 32  1  0
 32 33  2  3
 33 34  1  0
 34 35  2  0
  2  3  1  0
  3  4  2  0
  4  5  1  0
  5  6  2  0
  6  7  1  0
  1  2  2  0
  2  7  1  0
  7 10  2  0
 10  9  1  0
  9  8  2  0
  8  1  1  0
M  END

$$$$
