No_4815-gen_results/8p0m/2024-11-27-11-27-31/
     RDKit          3D

 14 14  0  0  0  0  0  0  0  0999 V2000
  -28.1229   -1.3353   28.4874 O   0  0  0  0  0  0  0  0  0  0  0  0
  -27.4806   -0.4044   28.7094 C   0  0  0  0  0  0  0  0  0  0  0  0
  -27.2412    0.3910   29.5098 N   0  0  0  0  0  0  0  0  0  0  0  0
  -26.6424    0.1187   27.3495 C   0  0  0  0  0  0  0  0  0  0  0  0
  -26.8725    0.0603   26.3315 C   0  0  0  0  0  0  0  0  0  0  0  0
  -25.9624    0.5440   25.2827 C   0  0  0  0  0  0  0  0  0  0  0  0
  -24.6952    1.0179   25.6754 C   0  0  0  0  0  0  0  0  0  0  0  0
  -24.4003    1.0929   26.9886 C   0  0  0  0  0  0  0  0  0  0  0  0
  -25.2935    0.6916   27.8985 C   0  0  0  0  0  0  0  0  0  0  0  0
  -28.0711   -0.0280   30.8207 C   0  0  0  0  0  0  0  0  0  0  0  0
  -23.1229    1.6840   27.3592 C   0  0  0  0  0  0  0  0  0  0  0  0
  -22.2653    1.9027   26.5787 F   0  0  0  0  0  0  0  0  0  0  0  0
  -23.3163    2.9291   28.0561 F   0  0  0  0  0  0  0  0  0  0  0  0
  -22.5564    0.8991   28.3747 F   0  0  0  0  0  0  0  0  0  0  0  0
  1  2  2  0
  2  3  1  0
  2  4  1  0
  3 10  1  0
  8 11  1  0
 11 12  1  0
 11 13  1  0
 11 14  1  0
  4  5  2  0
  5  6  1  0
  6  7  2  0
  7  8  1  0
  8  9  2  0
  9  4  1  0
M  END

$$$$
