No_467-gen_results/8p0m/2024-11-27-11-27-31/
     RDKit          3D

 35 38  0  0  0  0  0  0  0  0999 V2000
  -28.0162   -0.8135   28.8779 C   0  0  0  0  0  0  0  0  0  0  0  0
  -28.4690   -0.7850   29.8287 C   0  0  0  0  0  0  0  0  0  0  0  0
  -26.5042   -0.7777   28.8766 C   0  0  0  0  0  0  0  0  0  0  0  0
  -25.6540   -0.6597   27.7191 C   0  0  0  0  0  0  0  0  0  0  0  0
  -27.9180   -0.9374   31.1824 C   0  0  0  0  0  0  0  0  0  0  0  0
  -26.5423   -0.9399   31.2606 C   0  0  0  0  0  0  0  0  0  0  0  0
  -25.7832   -0.8935   30.1201 C   0  0  0  0  0  0  0  0  0  0  0  0
  -25.2393    0.5761   27.4012 N   0  0  0  0  0  0  0  0  0  0  0  0
  -25.7756    1.6054   27.5272 C   0  0  0  0  0  0  0  0  0  0  0  0
  -25.0566    2.8185   27.1819 C   0  0  0  0  0  0  0  0  0  0  0  0
  -23.7659    2.3745   26.7125 C   0  0  0  0  0  0  0  0  0  0  0  0
  -23.8356    0.8155   26.9730 C   0  0  0  0  0  0  0  0  0  0  0  0
  -25.4259    4.2169   27.1471 C   0  0  0  0  0  0  0  0  0  0  0  0
  -25.6420    5.0849   27.9522 N   0  0  0  0  0  0  0  0  0  0  0  0
  -25.6696    4.7437   29.2678 C   0  0  0  0  0  0  0  0  0  0  0  0
  -25.9086    5.8428   30.2115 C   0  0  0  0  0  0  0  0  0  0  0  0
  -26.0227    6.4695   27.8053 C   0  0  0  0  0  0  0  0  0  0  0  0
  -25.9785    5.8384   31.4419 O   0  0  0  0  0  0  0  0  0  0  0  0
  -26.0779    7.0017   29.2836 C   0  0  0  0  0  0  0  0  0  0  0  0
  -25.3837    4.6292   25.8525 O   0  0  0  0  0  0  0  0  0  0  0  0
  -27.0886    1.8812   27.9158 N   0  0  0  0  0  0  0  0  0  0  0  0
  -27.4582    3.0539   28.4910 C   0  0  0  0  0  0  0  0  0  0  0  0
  -29.0356    3.2357   28.2930 C   0  0  0  0  0  0  0  0  0  0  0  0
  -29.4782    4.4371   28.8285 C   0  0  0  0  0  0  0  0  0  0  0  0
  -30.7226    4.8496   28.4444 C   0  0  0  0  0  0  0  0  0  0  0  0
  -31.5352    3.9857   27.7016 C   0  0  0  0  0  0  0  0  0  0  0  0
  -31.0523    2.8131   27.2070 C   0  0  0  0  0  0  0  0  0  0  0  0
  -29.7599    2.4674   27.4926 C   0  0  0  0  0  0  0  0  0  0  0  0
  -30.0826   -0.7746   29.9095 C   0  0  0  0  0  0  0  0  0  0  0  0
  -30.7585   -1.0066   28.9739 O   0  0  0  0  0  0  0  0  0  0  0  0
  -30.6581   -0.7008   31.1406 O   0  0  0  0  0  0  0  0  0  0  0  0
  -26.5263    4.8288   32.1185 C   0  0  0  0  0  0  0  0  0  0  0  0
  -26.6056    5.0539   33.5285 C   0  0  0  0  0  0  0  0  0  0  0  0
  -25.9655    5.7183   34.0708 C   0  0  0  0  0  0  0  0  0  0  0  0
  -25.9985    6.1033   35.5303 C   0  0  0  0  0  0  0  0  0  0  0  0
  3  4  1  0
  4  8  1  0
  8  9  1  0
  9 10  2  0
 10 11  1  0
  8 12  1  0
 11 12  2  0
 10 13  1  0
 13 14  1  0
 14 15  1  0
 15 16  2  0
 14 17  1  0
 16 18  1  0
 16 19  1  0
 17 19  1  0
 13 20  2  0
  9 21  1  0
 21 22  1  0
 22 23  1  0
  2 29  1  0
 29 30  1  0
 29 31  2  0
 18 32  1  0
 32 33  1  0
 33 34  2  3
 34 35  1  0
 23 24  2  0
 24 25  1  0
 25 26  2  0
 26 27  1  0
 27 28  2  0
 28 23  1  0
  1  2  2  0
  2  5  1  0
  5  6  2  0
  6  7  1  0
  7  3  2  0
  3  1  1  0
M  END

$$$$
