No_4833-gen_results/8p0m/2024-11-27-11-27-31/
     RDKit          3D

 21 24  0  0  0  0  0  0  0  0999 V2000
  -28.0162   -0.8135   28.8779 C   0  0  0  0  0  0  0  0  0  0  0  0
  -27.0636   -0.1190   28.6079 C   0  0  0  0  0  0  0  0  0  0  0  0
  -26.8756    1.1325   28.9134 C   0  0  0  0  0  0  0  0  0  0  0  0
  -27.9014    1.8066   29.6436 C   0  0  0  0  0  0  0  0  0  0  0  0
  -28.9449    1.0388   30.0360 C   0  0  0  0  0  0  0  0  0  0  0  0
  -29.0273   -0.2890   29.7051 C   0  0  0  0  0  0  0  0  0  0  0  0
  -25.6959    1.9505   28.4764 C   0  0  0  0  0  0  0  0  0  0  0  0
  -25.0886    1.8635   27.5900 C   0  0  0  0  0  0  0  0  0  0  0  0
  -23.8419    2.6359   27.2476 C   0  0  0  0  0  0  0  0  0  0  0  0
  -25.2941    3.0676   29.4577 C   0  0  0  0  0  0  0  0  0  0  0  0
  -25.9773    3.2487   30.6522 N   0  0  0  0  0  0  0  0  0  0  0  0
  -23.4943    3.5822   28.0265 C   0  0  0  0  0  0  0  0  0  0  0  0
  -24.1878    3.8184   29.1516 C   0  0  0  0  0  0  0  0  0  0  0  0
  -25.6666    3.9679   31.5549 C   0  0  0  0  0  0  0  0  0  0  0  0
  -26.1650    4.4397   32.5431 C   0  0  0  0  0  0  0  0  0  0  0  0
  -26.7166    5.3636   32.7137 C   0  0  0  0  0  0  0  0  0  0  0  0
  -27.6473    5.6752   33.8082 C   0  0  0  0  0  0  0  0  0  0  0  0
  -27.7089    4.7586   34.8806 C   0  0  0  0  0  0  0  0  0  0  0  0
  -27.0081    3.6078   34.8040 C   0  0  0  0  0  0  0  0  0  0  0  0
  -26.2529    3.3435   33.6691 C   0  0  0  0  0  0  0  0  0  0  0  0
  -27.1820    2.3557   30.7199 C   0  0  0  0  0  0  0  0  0  0  0  0
  3  7  1  0
 10 11  1  0
 11 14  1  0
  4 21  1  0
 11 21  1  0
 14 15  1  0
  7  8  2  0
  8  9  1  0
  9 12  2  0
 12 13  1  0
 13 10  2  0
 10  7  1  0
  1  2  2  0
  2  3  1  0
  3  4  2  0
  4  5  1  0
  5  6  2  0
  6  1  1  0
 15 16  2  0
 16 17  1  0
 17 18  2  0
 18 19  1  0
 19 20  2  0
 20 15  1  0
M  END

$$$$
