No_4243-gen_results/8p0m/2024-11-27-11-27-31/
     RDKit          3D

 35 38  0  0  0  0  0  0  0  0999 V2000
  -28.1229   -1.3353   28.4874 O   0  0  0  0  0  0  0  0  0  0  0  0
  -28.5208   -0.4363   29.0779 C   0  0  0  0  0  0  0  0  0  0  0  0
  -27.9150    0.0780   30.0386 O   0  0  0  0  0  0  0  0  0  0  0  0
  -29.8074    0.1885   28.6630 C   0  0  0  0  0  0  0  0  0  0  0  0
  -29.7778    1.2624   28.2160 N   0  0  0  0  0  0  0  0  0  0  0  0
  -30.4044    1.9026   27.4078 C   0  0  0  0  0  0  0  0  0  0  0  0
  -30.4766    2.2540   26.4712 C   0  0  0  0  0  0  0  0  0  0  0  0
  -31.4312    3.0603   25.6249 C   0  0  0  0  0  0  0  0  0  0  0  0
  -32.5257    3.4839   26.3374 C   0  0  0  0  0  0  0  0  0  0  0  0
  -32.6694    3.2040   27.6106 C   0  0  0  0  0  0  0  0  0  0  0  0
  -31.6963    2.5008   28.2709 C   0  0  0  0  0  0  0  0  0  0  0  0
  -30.8333   -0.5010   28.7317 O   0  0  0  0  0  0  0  0  0  0  0  0
  -29.2670    1.8515   25.4847 C   0  0  0  0  0  0  0  0  0  0  0  0
  -28.0679    2.4076   25.6849 C   0  0  0  0  0  0  0  0  0  0  0  0
  -26.9059    1.8434   25.1937 C   0  0  0  0  0  0  0  0  0  0  0  0
  -27.0356    0.5997   24.5129 C   0  0  0  0  0  0  0  0  0  0  0  0
  -29.3334    0.5973   24.9180 C   0  0  0  0  0  0  0  0  0  0  0  0
  -28.2724    0.0066   24.4177 C   0  0  0  0  0  0  0  0  0  0  0  0
  -30.6480   -0.1365   24.8574 C   0  0  0  0  0  0  0  0  0  0  0  0
  -30.8600   -0.9028   23.7260 C   0  0  0  0  0  0  0  0  0  0  0  0
  -32.1322   -1.5521   23.7390 C   0  0  0  0  0  0  0  0  0  0  0  0
  -33.0631   -1.4467   24.8260 C   0  0  0  0  0  0  0  0  0  0  0  0
  -32.8059   -0.5662   25.8835 C   0  0  0  0  0  0  0  0  0  0  0  0
  -31.5872    0.0628   25.9075 C   0  0  0  0  0  0  0  0  0  0  0  0
  -31.2489    3.3648   24.2047 C   0  0  0  0  0  0  0  0  0  0  0  0
  -30.3522    3.3980   23.5338 N   0  0  0  0  0  0  0  0  0  0  0  0
  -32.3641    4.0597   23.7070 N   0  0  0  0  0  0  0  0  0  0  0  0
  -32.5180    3.8931   22.3581 C   0  0  0  0  0  0  0  0  0  0  0  0
  -33.6753    4.5699   21.8052 C   0  0  0  0  0  0  0  0  0  0  0  0
  -31.7341    3.1953   21.4834 C   0  0  0  0  0  0  0  0  0  0  0  0
  -30.4687    2.8893   22.1797 C   0  0  0  0  0  0  0  0  0  0  0  0
  -34.5014    5.4435   22.5086 C   0  0  0  0  0  0  0  0  0  0  0  0
  -35.5682    6.1191   21.9167 C   0  0  0  0  0  0  0  0  0  0  0  0
  -33.9360    4.4889   20.4382 C   0  0  0  0  0  0  0  0  0  0  0  0
  -34.9805    5.1702   19.7855 C   0  0  0  0  0  0  0  0  0  0  0  0
  1  2  2  0
  2  3  1  0
  2  4  1  0
  4  5  1  0
  5  6  1  0
  4 12  2  0
  7 13  1  0
 17 19  1  0
  8 25  1  0
 28 29  1  0
 29 32  1  0
 32 33  2  0
 29 34  1  0
 34 35  1  0
 13 14  2  0
 14 15  1  0
 15 16  2  0
 16 18  1  0
 18 17  2  0
 17 13  1  0
 25 26  2  0
 26 31  1  0
 31 30  2  0
 30 28  1  0
 28 27  2  0
 27 25  1  0
  6  7  2  0
  7  8  1  0
  8  9  2  0
  9 10  1  0
 10 11  2  0
 11  6  1  0
 19 20  2  0
 20 21  1  0
 21 22  2  0
 22 23  1  0
 23 24  2  0
 24 19  1  0
M  END

$$$$
