No_4114-gen_results/8p0m/2024-11-27-11-27-31/
     RDKit          3D

  6  5  0  0  0  0  0  0  0  0999 V2000
  -28.1229   -1.3353   28.4874 O   0  0  0  0  0  0  0  0  0  0  0  0
  -27.4806   -0.4044   28.7094 C   0  0  0  0  0  0  0  0  0  0  0  0
  -27.1904    0.2460   29.5268 C   0  0  0  0  0  0  0  0  0  0  0  0
  -26.7282   -0.1238   27.4073 F   0  0  0  0  0  0  0  0  0  0  0  0
  -26.2623    1.3699   29.6678 C   0  0  0  0  0  0  0  0  0  0  0  0
  -25.6288    1.5981   28.3315 C   0  0  0  0  0  0  0  0  0  0  0  0
  1  2  2  0
  2  3  1  0
  2  4  1  0
  3  5  2  3
  5  6  1  0
M  END

$$$$
