No_4101-gen_results/8p0m/2024-11-27-11-27-31/
     RDKit          3D

 35 37  0  0  0  0  0  0  0  0999 V2000
  -28.0162   -0.8135   28.8779 C   0  0  0  0  0  0  0  0  0  0  0  0
  -27.0636   -0.1189   28.6079 C   0  0  0  0  0  0  0  0  0  0  0  0
  -27.0010    0.6913   27.4910 C   0  0  0  0  0  0  0  0  0  0  0  0
  -25.8548    1.4825   27.0830 C   0  0  0  0  0  0  0  0  0  0  0  0
  -24.6901    1.4526   27.8807 C   0  0  0  0  0  0  0  0  0  0  0  0
  -24.7379    0.6010   29.0416 C   0  0  0  0  0  0  0  0  0  0  0  0
  -25.8234   -0.1688   29.3887 C   0  0  0  0  0  0  0  0  0  0  0  0
  -28.7568   -0.5479   30.0191 N   0  0  0  0  0  0  0  0  0  0  0  0
  -28.9317    0.3890   30.5031 C   0  0  0  0  0  0  0  0  0  0  0  0
  -29.3215    1.0528   31.2089 C   0  0  0  0  0  0  0  0  0  0  0  0
  -29.7799    2.1726   31.9168 C   0  0  0  0  0  0  0  0  0  0  0  0
  -23.6604    2.1604   27.6207 F   0  0  0  0  0  0  0  0  0  0  0  0
  -29.8265    3.1708   32.6187 C   0  0  0  0  0  0  0  0  0  0  0  0
  -31.1334    3.7075   32.5269 C   0  0  0  0  0  0  0  0  0  0  0  0
  -31.2375    5.0486   33.1046 C   0  0  0  0  0  0  0  0  0  0  0  0
  -30.1206    5.5355   33.8040 C   0  0  0  0  0  0  0  0  0  0  0  0
  -28.8983    4.9015   33.8532 C   0  0  0  0  0  0  0  0  0  0  0  0
  -28.7093    3.7647   33.2179 C   0  0  0  0  0  0  0  0  0  0  0  0
  -32.5045    5.6920   33.1374 C   0  0  0  0  0  0  0  0  0  0  0  0
  -33.3990    5.1456   33.5939 F   0  0  0  0  0  0  0  0  0  0  0  0
  -32.3438    6.9456   33.7720 F   0  0  0  0  0  0  0  0  0  0  0  0
  -32.7300    6.0230   31.8147 F   0  0  0  0  0  0  0  0  0  0  0  0
  -29.4884   -1.7525   30.4792 C   0  0  0  0  0  0  0  0  0  0  0  0
  -28.6588   -2.8528   30.8557 C   0  0  0  0  0  0  0  0  0  0  0  0
  -29.0604   -4.1442   30.5272 C   0  0  0  0  0  0  0  0  0  0  0  0
  -28.2907   -5.0411   30.7282 O   0  0  0  0  0  0  0  0  0  0  0  0
  -30.3458   -4.4537   30.4790 N   0  0  0  0  0  0  0  0  0  0  0  0
  -30.8449   -5.7605   30.1239 C   0  0  0  0  0  0  0  0  0  0  0  0
  -31.5375   -5.8107   28.9714 C   0  0  0  0  0  0  0  0  0  0  0  0
  -31.6662   -7.0394   28.3259 C   0  0  0  0  0  0  0  0  0  0  0  0
  -31.4996   -8.2506   29.0322 C   0  0  0  0  0  0  0  0  0  0  0  0
  -30.9217   -8.1336   30.3363 C   0  0  0  0  0  0  0  0  0  0  0  0
  -30.5163   -6.8807   30.8399 C   0  0  0  0  0  0  0  0  0  0  0  0
  -28.0120    0.7582   26.6857 F   0  0  0  0  0  0  0  0  0  0  0  0
  -31.8532   -9.5086   28.4883 C   0  0  0  0  0  0  0  0  0  0  0  0
  1  2  1  0
  1  8  1  0
  8  9  1  0
  9 10  1  0
 10 11  2  3
  5 12  1  0
 11 13  1  0
 15 19  1  0
 19 20  1  0
 19 21  1  0
 19 22  1  0
  8 23  1  0
 23 24  1  0
 24 25  1  0
 25 26  2  0
 25 27  1  0
 27 28  1  0
  3 34  1  0
 31 35  1  0
 28 29  2  0
 29 30  1  0
 30 31  2  0
 31 32  1  0
 32 33  2  0
 33 28  1  0
  2  3  2  0
  3  4  1  0
  4  5  2  0
  5  6  1  0
  6  7  2  0
  7  2  1  0
 13 14  2  0
 14 15  1  0
 15 16  2  0
 16 17  1  0
 17 18  2  0
 18 13  1  0
M  END

$$$$
