No_4520-gen_results/8p0m/2024-11-27-11-27-31/
     RDKit          3D

 14 15  0  0  0  0  0  0  0  0999 V2000
  -28.0162   -0.8135   28.8779 C   0  0  0  0  0  0  0  0  0  0  0  0
  -28.4690   -0.7850   29.8287 C   0  0  0  0  0  0  0  0  0  0  0  0
  -26.5042   -0.7777   28.8766 C   0  0  0  0  0  0  0  0  0  0  0  0
  -25.8103   -0.8531   30.1028 C   0  0  0  0  0  0  0  0  0  0  0  0
  -27.9906   -0.8916   31.2257 C   0  0  0  0  0  0  0  0  0  0  0  0
  -26.6042   -0.8676   31.2652 C   0  0  0  0  0  0  0  0  0  0  0  0
  -24.5004   -0.7818   30.1446 O   0  0  0  0  0  0  0  0  0  0  0  0
  -23.8455    0.2950   29.6103 C   0  0  0  0  0  0  0  0  0  0  0  0
  -22.6709   -0.0063   28.9070 C   0  0  0  0  0  0  0  0  0  0  0  0
  -22.0250    1.0939   28.1927 C   0  0  0  0  0  0  0  0  0  0  0  0
  -22.7736    1.8820   27.3599 C   0  0  0  0  0  0  0  0  0  0  0  0
  -24.1149    2.1639   27.9394 C   0  0  0  0  0  0  0  0  0  0  0  0
  -24.8078    1.1236   28.7775 C   0  0  0  0  0  0  0  0  0  0  0  0
  -24.9003    3.2463   27.4630 C   0  0  0  0  0  0  0  0  0  0  0  0
  4  7  1  0
  7  8  1  0
 12 14  1  0
  8  9  2  0
  9 10  1  0
 10 11  2  0
 11 12  1  0
 12 13  2  0
 13  8  1  0
  1  2  2  0
  2  5  1  0
  5  6  2  0
  6  4  1  0
  4  3  2  0
  3  1  1  0
M  END

$$$$
