No_457-gen_results/8p0m/2024-11-27-11-27-31/
     RDKit          3D

 15 15  0  0  0  0  0  0  0  0999 V2000
  -28.0162   -0.8135   28.8779 C   0  0  0  0  0  0  0  0  0  0  0  0
  -28.4690   -0.7850   29.8287 C   0  0  0  0  0  0  0  0  0  0  0  0
  -26.5042   -0.7777   28.8766 C   0  0  0  0  0  0  0  0  0  0  0  0
  -25.8103   -0.8531   30.1028 C   0  0  0  0  0  0  0  0  0  0  0  0
  -27.9906   -0.8916   31.2257 C   0  0  0  0  0  0  0  0  0  0  0  0
  -26.6042   -0.8676   31.2652 C   0  0  0  0  0  0  0  0  0  0  0  0
  -24.3894   -0.8049   30.1638 C   0  0  0  0  0  0  0  0  0  0  0  0
  -23.8446   -1.5191   29.3384 F   0  0  0  0  0  0  0  0  0  0  0  0
  -23.9242   -1.1725   31.4498 F   0  0  0  0  0  0  0  0  0  0  0  0
  -23.9291    0.4564   30.0062 F   0  0  0  0  0  0  0  0  0  0  0  0
  -30.0885   -0.7922   29.8266 C   0  0  0  0  0  0  0  0  0  0  0  0
  -30.7738   -1.5827   30.2937 O   0  0  0  0  0  0  0  0  0  0  0  0
  -30.5705    0.3946   29.5282 O   0  0  0  0  0  0  0  0  0  0  0  0
  -25.1357   -1.7707   29.8962 Br  0  0  0  0  0  0  0  0  0  0  0  0
  -25.9035   -0.3518   27.5380 C   0  0  0  0  0  0  0  0  0  0  0  0
  1  2  1  0
  1  3  2  0
  3  4  1  0
  2  5  2  0
  4  6  1  0
  5  6  1  0
  4  7  1  0
  7  8  1  0
  7  9  1  0
  7 10  1  0
  2 11  1  0
 11 12  2  0
 11 13  1  0
  4 14  1  0
  3 15  1  0
M  END

$$$$
