No_4425-gen_results/8p0m/2024-11-27-11-27-31/
     RDKit          3D

 16 17  0  0  0  0  0  0  0  0999 V2000
  -28.0162   -0.8135   28.8779 C   0  0  0  0  0  0  0  0  0  0  0  0
  -28.4690   -0.7850   29.8287 C   0  0  0  0  0  0  0  0  0  0  0  0
  -28.1960    0.3478   28.0550 C   0  0  0  0  0  0  0  0  0  0  0  0
  -29.0191    1.3501   28.3782 C   0  0  0  0  0  0  0  0  0  0  0  0
  -29.4107    0.1803   30.3782 C   0  0  0  0  0  0  0  0  0  0  0  0
  -29.6059    1.2495   29.6193 C   0  0  0  0  0  0  0  0  0  0  0  0
  -27.4597    0.3802   26.7091 C   0  0  0  0  0  0  0  0  0  0  0  0
  -26.0094    0.3317   26.7236 C   0  0  0  0  0  0  0  0  0  0  0  0
  -25.3055    0.0239   27.8527 C   0  0  0  0  0  0  0  0  0  0  0  0
  -23.8827    0.0654   27.8432 C   0  0  0  0  0  0  0  0  0  0  0  0
  -23.1476   -0.3454   29.0139 C   0  0  0  0  0  0  0  0  0  0  0  0
  -23.7650   -1.1761   29.9476 C   0  0  0  0  0  0  0  0  0  0  0  0
  -25.1285   -1.3233   29.9089 C   0  0  0  0  0  0  0  0  0  0  0  0
  -25.8697   -0.8126   28.9119 C   0  0  0  0  0  0  0  0  0  0  0  0
  -25.9310   -2.0177   28.4479 O   0  0  0  0  0  0  0  0  0  0  0  0
  -25.9237   -3.2099   28.7793 C   0  0  0  0  0  0  0  0  0  0  0  0
  3  7  1  0
  7  8  1  0
 14 15  1  0
 15 16  1  0
  8  9  1  0
  9 10  2  0
 10 11  1  0
 11 12  2  0
 12 13  1  0
 13 14  2  0
 14  9  1  0
  1  2  2  0
  2  5  1  0
  5  6  2  0
  6  4  1  0
  4  3  2  0
  3  1  1  0
M  END

$$$$
