No_4728-gen_results/8p0m/2024-11-27-11-27-31/
     RDKit          3D

 35 37  0  0  0  0  0  0  0  0999 V2000
  -28.0162   -0.8135   28.8779 C   0  0  0  0  0  0  0  0  0  0  0  0
  -27.0636   -0.1189   28.6079 C   0  0  0  0  0  0  0  0  0  0  0  0
  -26.9287    1.1713   29.0083 C   0  0  0  0  0  0  0  0  0  0  0  0
  -25.7702    2.0341   28.6884 C   0  0  0  0  0  0  0  0  0  0  0  0
  -24.7141    1.4431   27.9188 C   0  0  0  0  0  0  0  0  0  0  0  0
  -24.8590    0.0783   27.5836 C   0  0  0  0  0  0  0  0  0  0  0  0
  -25.9647   -0.6606   27.9164 C   0  0  0  0  0  0  0  0  0  0  0  0
  -27.9821   -1.6367   30.0748 N   0  0  0  0  0  0  0  0  0  0  0  0
  -29.5853   -0.4317   28.4092 Cl  0  0  0  0  0  0  0  0  0  0  0  0
  -23.5354    2.1363   27.5553 C   0  0  0  0  0  0  0  0  0  0  0  0
  -22.9009    2.6793   28.1539 O   0  0  0  0  0  0  0  0  0  0  0  0
  -23.3120    2.0320   26.1646 O   0  0  0  0  0  0  0  0  0  0  0  0
  -29.0211   -2.5451   30.3971 C   0  0  0  0  0  0  0  0  0  0  0  0
  -28.5356   -3.7884   30.9000 C   0  0  0  0  0  0  0  0  0  0  0  0
  -29.1891   -4.4701   31.6337 O   0  0  0  0  0  0  0  0  0  0  0  0
  -27.2895   -4.1218   30.6207 O   0  0  0  0  0  0  0  0  0  0  0  0
  -30.1492   -2.2988   30.3437 O   0  0  0  0  0  0  0  0  0  0  0  0
  -25.6405    3.4115   29.0919 C   0  0  0  0  0  0  0  0  0  0  0  0
  -26.4042    4.3122   28.4414 N   0  0  0  0  0  0  0  0  0  0  0  0
  -26.1880    5.5135   28.3026 C   0  0  0  0  0  0  0  0  0  0  0  0
  -27.6069    3.8816   27.8323 C   0  0  0  0  0  0  0  0  0  0  0  0
  -25.1879    6.1728   28.7597 C   0  0  0  0  0  0  0  0  0  0  0  0
  -25.1049    7.5701   28.8803 C   0  0  0  0  0  0  0  0  0  0  0  0
  -25.9783    8.3360   28.1281 C   0  0  0  0  0  0  0  0  0  0  0  0
  -27.1764    6.5677   27.9264 C   0  0  0  0  0  0  0  0  0  0  0  0
  -27.1301    7.7985   27.7808 C   0  0  0  0  0  0  0  0  0  0  0  0
  -28.4550    4.5582   27.2868 C   0  0  0  0  0  0  0  0  0  0  0  0
  -28.3643    5.8106   27.3065 C   0  0  0  0  0  0  0  0  0  0  0  0
  -25.0328    3.6264   30.1729 O   0  0  0  0  0  0  0  0  0  0  0  0
  -23.9064    8.1559   29.3023 F   0  0  0  0  0  0  0  0  0  0  0  0
  -26.8868   -4.3059   29.2294 C   0  0  0  0  0  0  0  0  0  0  0  0
  -25.4527   -4.9542   29.3995 C   0  0  0  0  0  0  0  0  0  0  0  0
  -24.3851   -3.8842   29.1201 C   0  0  0  0  0  0  0  0  0  0  0  0
  -24.3123   -2.8455   29.8297 O   0  0  0  0  0  0  0  0  0  0  0  0
  -23.6672   -3.9340   28.0205 O   0  0  0  0  0  0  0  0  0  0  0  0
  1  2  1  0
  1  8  1  0
  1  9  1  0
  5 10  1  0
 10 11  2  0
 10 12  1  0
  8 13  1  0
 13 14  1  0
 14 15  2  0
 14 16  1  0
 13 17  2  0
  4 18  1  0
 18 19  1  0
 19 20  1  0
 19 21  1  0
 25 28  1  0
 27 28  1  0
 18 29  2  0
 23 30  1  0
 16 31  1  0
 31 32  1  0
 32 33  1  0
 33 34  2  0
 33 35  1  0
 27 21  1  0
 20 22  2  0
 22 23  1  0
 23 24  2  0
 24 26  1  0
 26 25  2  0
 25 20  1  0
  2  3  2  0
  3  4  1  0
  4  5  2  0
  5  6  1  0
  6  7  2  0
  7  2  1  0
M  END

$$$$
