No_4358-gen_results/8p0m/2024-11-27-11-27-31/
     RDKit          3D

 13 14  0  0  0  0  0  0  0  0999 V2000
  -28.0727   -1.2542   28.5316 F   0  0  0  0  0  0  0  0  0  0  0  0
  -27.3591   -0.3792   28.7224 C   0  0  0  0  0  0  0  0  0  0  0  0
  -27.7014    0.7608   29.1249 C   0  0  0  0  0  0  0  0  0  0  0  0
  -25.8844   -0.6918   28.4374 C   0  0  0  0  0  0  0  0  0  0  0  0
  -24.9212    0.3779   28.6013 C   0  0  0  0  0  0  0  0  0  0  0  0
  -26.6914    1.8696   29.2705 C   0  0  0  0  0  0  0  0  0  0  0  0
  -25.3451    1.6252   29.0013 C   0  0  0  0  0  0  0  0  0  0  0  0
  -23.5124    0.1705   28.3599 C   0  0  0  0  0  0  0  0  0  0  0  0
  -22.6342    0.3688   29.2441 C   0  0  0  0  0  0  0  0  0  0  0  0
  -21.2481    0.0796   28.9276 C   0  0  0  0  0  0  0  0  0  0  0  0
  -20.6676   -0.8040   28.5027 C   0  0  0  0  0  0  0  0  0  0  0  0
  -21.5139   -1.9030   28.3627 C   0  0  0  0  0  0  0  0  0  0  0  0
  -23.0856   -1.3609   28.2878 C   0  0  0  0  0  0  0  0  0  0  0  0
  1  2  1  0
  5  8  1  0
  2  3  2  0
  3  6  1  0
  6  7  2  0
  7  5  1  0
  5  4  2  0
  4  2  1  0
  8  9  2  0
  9 10  1  0
 10 11  2  0
 11 12  1  0
 12 13  2  0
 13  8  1  0
M  END

$$$$
