No_4408-gen_results/8p0m/2024-11-27-11-27-31/
     RDKit          3D

 11 12  0  0  0  0  0  0  0  0999 V2000
  -28.1493   -0.8198   28.9079 Cl  0  0  0  0  0  0  0  0  0  0  0  0
  -26.9116   -0.0797   28.9452 C   0  0  0  0  0  0  0  0  0  0  0  0
  -26.0490   -0.0718   27.8591 C   0  0  0  0  0  0  0  0  0  0  0  0
  -25.2289    1.0128   27.6200 C   0  0  0  0  0  0  0  0  0  0  0  0
  -24.2976    1.1087   26.4683 C   0  0  0  0  0  0  0  0  0  0  0  0
  -26.3451    0.6562   30.1047 C   0  0  0  0  0  0  0  0  0  0  0  0
  -25.3830    1.6061   30.0277 C   0  0  0  0  0  0  0  0  0  0  0  0
  -24.7021    1.8217   28.7701 C   0  0  0  0  0  0  0  0  0  0  0  0
  -23.3142    2.0919   26.3670 C   0  0  0  0  0  0  0  0  0  0  0  0
  -22.9897    2.8394   27.5030 C   0  0  0  0  0  0  0  0  0  0  0  0
  -23.6177    2.7085   28.6309 C   0  0  0  0  0  0  0  0  0  0  0  0
  1  2  1  0
  2  3  2  0
  3  4  1  0
  8  7  1  0
  7  6  2  0
  6  2  1  0
  4  5  2  0
  5  9  1  0
  9 10  2  0
 10 11  1  0
 11  8  2  0
  8  4  1  0
M  END

$$$$
