No_4221-gen_results/8p0m/2024-11-27-11-27-31/
     RDKit          3D

 14 14  0  0  0  0  0  0  0  0999 V2000
  -28.0162   -0.8135   28.8779 C   0  0  0  0  0  0  0  0  0  0  0  0
  -28.4690   -0.7850   29.8287 C   0  0  0  0  0  0  0  0  0  0  0  0
  -27.1356    0.2359   28.5352 C   0  0  0  0  0  0  0  0  0  0  0  0
  -26.8745    1.2825   29.3982 C   0  0  0  0  0  0  0  0  0  0  0  0
  -28.3613    0.1987   30.9244 C   0  0  0  0  0  0  0  0  0  0  0  0
  -25.9723    2.3852   29.1040 C   0  0  0  0  0  0  0  0  0  0  0  0
  -27.5118    1.2316   30.6323 C   0  0  0  0  0  0  0  0  0  0  0  0
  -25.3009    2.5053   28.0335 C   0  0  0  0  0  0  0  0  0  0  0  0
  -24.7278    1.4799   27.3812 C   0  0  0  0  0  0  0  0  0  0  0  0
  -24.2004    0.4254   28.0721 C   0  0  0  0  0  0  0  0  0  0  0  0
  -23.4866    0.3115   29.2492 C   0  0  0  0  0  0  0  0  0  0  0  0
  -23.0529   -0.9043   29.7651 C   0  0  0  0  0  0  0  0  0  0  0  0
  -23.5225   -2.0456   29.1015 C   0  0  0  0  0  0  0  0  0  0  0  0
  -24.4119   -2.0720   28.1281 C   0  0  0  0  0  0  0  0  0  0  0  0
  4  6  1  0
  6  8  2  3
  8  9  1  0
  9 10  2  3
 10 11  1  0
 11 12  2  3
 12 13  1  0
 13 14  2  0
  1  2  2  0
  2  5  1  0
  5  7  2  0
  7  4  1  0
  4  3  2  0
  3  1  1  0
M  END

$$$$
