No_4045-gen_results/8p0m/2024-11-27-11-27-31/
     RDKit          3D

 35 40  0  0  0  0  0  0  0  0999 V2000
  -28.0162   -0.8135   28.8779 C   0  0  0  0  0  0  0  0  0  0  0  0
  -27.0636   -0.1190   28.6079 C   0  0  0  0  0  0  0  0  0  0  0  0
  -25.7647   -0.3897   29.0360 C   0  0  0  0  0  0  0  0  0  0  0  0
  -25.5296   -1.5303   29.9014 C   0  0  0  0  0  0  0  0  0  0  0  0
  -24.2910   -1.8751   30.3797 C   0  0  0  0  0  0  0  0  0  0  0  0
  -27.9084   -1.9224   29.8277 C   0  0  0  0  0  0  0  0  0  0  0  0
  -26.6512   -2.2902   30.3071 C   0  0  0  0  0  0  0  0  0  0  0  0
  -23.2204   -0.8110   30.2432 C   0  0  0  0  0  0  0  0  0  0  0  0
  -23.1592   -0.0547   29.0942 C   0  0  0  0  0  0  0  0  0  0  0  0
  -24.5456    0.4203   28.6666 C   0  0  0  0  0  0  0  0  0  0  0  0
  -24.5642    1.4957   27.7151 C   0  0  0  0  0  0  0  0  0  0  0  0
  -23.6159    1.6798   26.7846 C   0  0  0  0  0  0  0  0  0  0  0  0
  -22.4060    0.9299   26.8998 C   0  0  0  0  0  0  0  0  0  0  0  0
  -22.0597    0.4142   28.3257 C   0  0  0  0  0  0  0  0  0  0  0  0
  -29.0052   -2.6220   30.1466 O   0  0  0  0  0  0  0  0  0  0  0  0
  -30.0957   -1.9617   30.5875 C   0  0  0  0  0  0  0  0  0  0  0  0
  -30.6886   -2.6679   31.6537 C   0  0  0  0  0  0  0  0  0  0  0  0
  -30.0927   -3.7287   32.1721 C   0  0  0  0  0  0  0  0  0  0  0  0
  -31.1270   -1.7383   32.7848 C   0  0  0  0  0  0  0  0  0  0  0  0
  -31.7583   -0.5860   32.4267 C   0  0  0  0  0  0  0  0  0  0  0  0
  -31.9841    0.3798   33.2967 C   0  0  0  0  0  0  0  0  0  0  0  0
  -32.4846    1.7112   32.9199 C   0  0  0  0  0  0  0  0  0  0  0  0
  -32.7392    2.7469   33.8131 C   0  0  0  0  0  0  0  0  0  0  0  0
  -33.1706    1.6347   31.6787 C   0  0  0  0  0  0  0  0  0  0  0  0
  -32.9521    0.6629   30.7272 C   0  0  0  0  0  0  0  0  0  0  0  0
  -32.2352   -0.4847   31.0876 C   0  0  0  0  0  0  0  0  0  0  0  0
  -32.7707    3.7774   33.9265 C   0  0  0  0  0  0  0  0  0  0  0  0
  -32.9572    4.6832   35.0576 C   0  0  0  0  0  0  0  0  0  0  0  0
  -33.1438    4.0267   36.2793 C   0  0  0  0  0  0  0  0  0  0  0  0
  -33.0907    2.6747   36.3146 C   0  0  0  0  0  0  0  0  0  0  0  0
  -32.8447    1.8898   35.2047 C   0  0  0  0  0  0  0  0  0  0  0  0
  -29.8963   -4.8486   31.2875 C   0  0  0  0  0  0  0  0  0  0  0  0
  -29.3857   -6.0446   31.9449 C   0  0  0  0  0  0  0  0  0  0  0  0
  -29.6221   -7.2046   31.1622 C   0  0  0  0  0  0  0  0  0  0  0  0
  -30.7532   -0.8092   30.0658 C   0  0  0  0  0  0  0  0  0  0  0  0
  6 15  1  0
 15 16  1  0
 16 17  1  0
 17 18  2  3
 17 19  1  0
 19 20  1  0
 22 23  1  0
 18 32  1  0
 32 33  2  3
 33 34  1  0
 16 35  1  0
 26 35  1  0
  4  5  2  0
  5  8  1  0
  8  9  2  0
 10  3  2  0
 23 27  2  0
 27 28  1  0
 28 29  2  0
 29 30  1  0
 30 31  2  0
 31 23  1  0
  9 10  1  0
 10 11  1  0
 11 12  2  0
 12 13  1  0
 13 14  2  0
 14  9  1  0
 20 21  2  0
 21 22  1  0
 22 24  2  0
 24 25  1  0
 25 26  2  0
 26 20  1  0
  1  2  2  0
  2  3  1  0
  3  4  1  0
  4  7  1  0
  7  6  2  0
  6  1  1  0
M  END

$$$$
