No_4354-gen_results/8p0m/2024-11-27-11-27-31/
     RDKit          3D

 11 11  0  0  0  0  0  0  0  0999 V2000
  -28.0162   -0.8135   28.8779 C   0  0  0  0  0  0  0  0  0  0  0  0
  -27.0636   -0.1190   28.6079 C   0  0  0  0  0  0  0  0  0  0  0  0
  -25.7923   -0.4302   29.0761 C   0  0  0  0  0  0  0  0  0  0  0  0
  -25.5756   -1.5654   29.9363 C   0  0  0  0  0  0  0  0  0  0  0  0
  -24.3722   -1.9422   30.4466 C   0  0  0  0  0  0  0  0  0  0  0  0
  -27.9614   -1.9130   29.8182 C   0  0  0  0  0  0  0  0  0  0  0  0
  -26.7388   -2.3049   30.3196 C   0  0  0  0  0  0  0  0  0  0  0  0
  -23.7063   -0.9669   31.3106 C   0  0  0  0  0  0  0  0  0  0  0  0
  -27.1013    1.0888   27.7478 C   0  0  0  0  0  0  0  0  0  0  0  0
  -26.3773    2.1076   27.6918 Cl  0  0  0  0  0  0  0  0  0  0  0  0
  -27.3806    0.5428   26.3791 F   0  0  0  0  0  0  0  0  0  0  0  0
  4  5  1  0
  5  8  1  0
  2  9  1  0
  9 10  1  0
  9 11  1  0
  1  2  2  0
  2  3  1  0
  3  4  2  0
  4  7  1  0
  7  6  2  0
  6  1  1  0
M  END

$$$$
