No_4839-gen_results/8p0m/2024-11-27-11-27-31/
     RDKit          3D

 28 31  0  0  0  0  0  0  0  0999 V2000
  -28.1229   -1.3353   28.4874 O   0  0  0  0  0  0  0  0  0  0  0  0
  -27.4806   -0.4044   28.7094 C   0  0  0  0  0  0  0  0  0  0  0  0
  -26.3804   -0.0867   27.9394 C   0  0  0  0  0  0  0  0  0  0  0  0
  -27.6664    0.4468   29.8988 N   0  0  0  0  0  0  0  0  0  0  0  0
  -25.1773   -0.4388   28.3946 C   0  0  0  0  0  0  0  0  0  0  0  0
  -23.9281   -0.2469   27.6677 C   0  0  0  0  0  0  0  0  0  0  0  0
  -24.0115    0.7683   26.6848 C   0  0  0  0  0  0  0  0  0  0  0  0
  -25.2436    1.2341   26.2435 C   0  0  0  0  0  0  0  0  0  0  0  0
  -26.3955    0.8712   26.8685 C   0  0  0  0  0  0  0  0  0  0  0  0
  -28.5073    0.3809   30.6406 C   0  0  0  0  0  0  0  0  0  0  0  0
  -29.5212   -0.0881   30.7903 C   0  0  0  0  0  0  0  0  0  0  0  0
  -30.5215   -0.0606   31.8496 C   0  0  0  0  0  0  0  0  0  0  0  0
  -30.1624    0.7597   32.9291 C   0  0  0  0  0  0  0  0  0  0  0  0
  -28.9566    1.3972   32.9547 C   0  0  0  0  0  0  0  0  0  0  0  0
  -28.0751    1.2941   31.9074 C   0  0  0  0  0  0  0  0  0  0  0  0
  -27.6575    1.3415   26.3518 C   0  0  0  0  0  0  0  0  0  0  0  0
  -28.1984    0.7756   25.2100 C   0  0  0  0  0  0  0  0  0  0  0  0
  -29.4803    1.0874   24.7977 C   0  0  0  0  0  0  0  0  0  0  0  0
  -30.2359    2.0188   25.4923 C   0  0  0  0  0  0  0  0  0  0  0  0
  -28.5059    2.1802   27.1726 C   0  0  0  0  0  0  0  0  0  0  0  0
  -29.7275    2.5870   26.7312 C   0  0  0  0  0  0  0  0  0  0  0  0
  -26.4405    1.3794   30.2405 C   0  0  0  0  0  0  0  0  0  0  0  0
  -26.3913    2.0101   31.1778 C   0  0  0  0  0  0  0  0  0  0  0  0
  -26.9277    2.0809   31.9560 C   0  0  0  0  0  0  0  0  0  0  0  0
  -30.6069    3.5084   27.5034 C   0  0  0  0  0  0  0  0  0  0  0  0
  -30.3253    4.4727   27.9641 O   0  0  0  0  0  0  0  0  0  0  0  0
  -31.8293    3.0061   27.6817 O   0  0  0  0  0  0  0  0  0  0  0  0
  -27.4946   -0.1105   24.5546 F   0  0  0  0  0  0  0  0  0  0  0  0
  1  2  2  0
  2  3  1  0
  2  4  1  0
  4 10  1  0
  9 16  1  0
  4 22  1  0
 15 24  1  0
 23 24  1  0
 21 25  1  0
 25 26  1  0
 25 27  2  0
 17 28  1  0
 23 22  1  0
  3  5  2  0
  5  6  1  0
  6  7  2  0
  7  8  1  0
  8  9  2  0
  9  3  1  0
 16 17  2  0
 17 18  1  0
 18 19  2  0
 19 21  1  0
 21 20  2  0
 20 16  1  0
 10 11  2  0
 11 12  1  0
 12 13  2  0
 13 14  1  0
 14 15  2  0
 15 10  1  0
M  END

$$$$
