No_4694-gen_results/8p0m/2024-11-27-11-27-31/
     RDKit          3D

 12 12  0  0  0  0  0  0  0  0999 V2000
  -28.0162   -0.8135   28.8779 C   0  0  0  0  0  0  0  0  0  0  0  0
  -27.0636   -0.1189   28.6079 C   0  0  0  0  0  0  0  0  0  0  0  0
  -25.7647   -0.3897   29.0360 C   0  0  0  0  0  0  0  0  0  0  0  0
  -24.5517    0.4058   28.7646 C   0  0  0  0  0  0  0  0  0  0  0  0
  -24.6957    1.4480   27.7988 C   0  0  0  0  0  0  0  0  0  0  0  0
  -25.9755    1.7250   27.3077 C   0  0  0  0  0  0  0  0  0  0  0  0
  -27.0718    1.0134   27.6535 C   0  0  0  0  0  0  0  0  0  0  0  0
  -29.0434   -0.4925   28.3039 F   0  0  0  0  0  0  0  0  0  0  0  0
  -28.0095   -1.7963   29.6731 F   0  0  0  0  0  0  0  0  0  0  0  0
  -23.4891    2.2141   27.5223 C   0  0  0  0  0  0  0  0  0  0  0  0
  -23.7092    3.2131   26.8291 F   0  0  0  0  0  0  0  0  0  0  0  0
  -22.5715    1.4857   26.7398 F   0  0  0  0  0  0  0  0  0  0  0  0
  1  2  2  3
  2  3  1  0
  3  4  1  0
  4  5  1  0
  5  6  1  0
  2  7  1  0
  6  7  1  0
  1  8  1  0
  1  9  1  0
  5 10  1  0
 10 11  1  0
 10 12  1  0
M  END

$$$$
