No_4738-gen_results/8p0m/2024-11-27-11-27-31/
     RDKit          3D

 13 13  0  0  0  0  0  0  0  0999 V2000
  -28.0727   -1.2542   28.5316 F   0  0  0  0  0  0  0  0  0  0  0  0
  -27.3591   -0.3792   28.7224 C   0  0  0  0  0  0  0  0  0  0  0  0
  -26.3180   -0.6608   29.1159 F   0  0  0  0  0  0  0  0  0  0  0  0
  -27.9301    0.6892   29.6024 C   0  0  0  0  0  0  0  0  0  0  0  0
  -27.2630    0.2562   27.4273 F   0  0  0  0  0  0  0  0  0  0  0  0
  -27.4020    1.9512   29.5274 C   0  0  0  0  0  0  0  0  0  0  0  0
  -27.7137    0.2568   30.9185 F   0  0  0  0  0  0  0  0  0  0  0  0
  -29.2712    0.6821   29.4238 F   0  0  0  0  0  0  0  0  0  0  0  0
  -27.4160    2.6511   28.3594 C   0  0  0  0  0  0  0  0  0  0  0  0
  -26.7816    4.0210   28.2196 C   0  0  0  0  0  0  0  0  0  0  0  0
  -26.4524    4.5531   29.2110 C   0  0  0  0  0  0  0  0  0  0  0  0
  -26.3801    3.8857   30.5240 C   0  0  0  0  0  0  0  0  0  0  0  0
  -26.8176    2.6178   30.6747 C   0  0  0  0  0  0  0  0  0  0  0  0
  1  2  1  0
  2  3  1  0
  2  4  1  0
  2  5  1  0
  4  6  1  0
  4  7  1  0
  4  8  1  0
  6  9  2  0
  9 10  1  0
 10 11  2  0
 11 12  1  0
 12 13  2  0
 13  6  1  0
M  END

$$$$
