No_4471-gen_results/8p0m/2024-11-27-11-27-31/
     RDKit          3D

 19 21  0  0  0  0  0  0  0  0999 V2000
  -28.1493   -0.8198   28.9079 Cl  0  0  0  0  0  0  0  0  0  0  0  0
  -28.5324   -0.0471   29.7727 C   0  0  0  0  0  0  0  0  0  0  0  0
  -27.6024    0.7852   30.3185 C   0  0  0  0  0  0  0  0  0  0  0  0
  -27.9264    1.8091   31.3693 C   0  0  0  0  0  0  0  0  0  0  0  0
  -29.2820    1.8300   31.7435 C   0  0  0  0  0  0  0  0  0  0  0  0
  -30.1642    1.0016   31.2423 C   0  0  0  0  0  0  0  0  0  0  0  0
  -29.8161    0.0491   30.2948 C   0  0  0  0  0  0  0  0  0  0  0  0
  -31.5629    1.0513   31.7176 C   0  0  0  0  0  0  0  0  0  0  0  0
  -31.8953    1.8379   32.7446 C   0  0  0  0  0  0  0  0  0  0  0  0
  -33.1909    1.9562   33.2583 C   0  0  0  0  0  0  0  0  0  0  0  0
  -34.1744    1.1587   32.5988 C   0  0  0  0  0  0  0  0  0  0  0  0
  -32.5218    0.2672   31.1384 C   0  0  0  0  0  0  0  0  0  0  0  0
  -33.8191    0.3342   31.5664 C   0  0  0  0  0  0  0  0  0  0  0  0
  -35.7946    1.3816   33.1602 Cl  0  0  0  0  0  0  0  0  0  0  0  0
  -35.0000   -0.6189   30.7943 Cl  0  0  0  0  0  0  0  0  0  0  0  0
  -26.8892    2.6577   31.8650 C   0  0  0  0  0  0  0  0  0  0  0  0
  -25.7245    2.5146   31.5582 C   0  0  0  0  0  0  0  0  0  0  0  0
  -25.2903    1.4610   30.5975 C   0  0  0  0  0  0  0  0  0  0  0  0
  -26.2172    0.6813   30.0832 C   0  0  0  0  0  0  0  0  0  0  0  0
  1  2  1  0
  6  8  1  0
 11 14  1  0
 13 15  1  0
  2  3  2  0
  4  5  2  0
  5  6  1  0
  6  7  2  0
  7  2  1  0
  3  4  1  0
  4 16  1  0
 16 17  2  0
 17 18  1  0
 18 19  2  0
 19  3  1  0
  8  9  2  0
  9 10  1  0
 10 11  2  0
 11 13  1  0
 13 12  2  0
 12  8  1  0
M  END

$$$$
