No_4813-gen_results/8p0m/2024-11-27-11-27-31/
     RDKit          3D

 20 21  0  0  0  0  0  0  0  0999 V2000
  -28.0162   -0.8135   28.8779 C   0  0  0  0  0  0  0  0  0  0  0  0
  -27.0636   -0.1189   28.6079 C   0  0  0  0  0  0  0  0  0  0  0  0
  -25.7923   -0.4302   29.0761 C   0  0  0  0  0  0  0  0  0  0  0  0
  -25.5756   -1.5654   29.9363 C   0  0  0  0  0  0  0  0  0  0  0  0
  -26.7354   -2.3004   30.2173 C   0  0  0  0  0  0  0  0  0  0  0  0
  -27.9184   -1.9537   29.7629 C   0  0  0  0  0  0  0  0  0  0  0  0
  -27.1057    1.1023   27.7593 C   0  0  0  0  0  0  0  0  0  0  0  0
  -28.1026    1.2424   27.1566 F   0  0  0  0  0  0  0  0  0  0  0  0
  -26.0037    1.0662   26.8436 F   0  0  0  0  0  0  0  0  0  0  0  0
  -26.8832    2.2591   28.4883 F   0  0  0  0  0  0  0  0  0  0  0  0
  -29.0694   -2.7537   30.2054 C   0  0  0  0  0  0  0  0  0  0  0  0
  -29.4424   -2.6578   31.2449 O   0  0  0  0  0  0  0  0  0  0  0  0
  -29.3954   -3.7804   29.4526 O   0  0  0  0  0  0  0  0  0  0  0  0
  -24.2257   -1.8371   30.4073 C   0  0  0  0  0  0  0  0  0  0  0  0
  -23.3329   -0.6874   30.3918 C   0  0  0  0  0  0  0  0  0  0  0  0
  -22.2226   -0.7344   29.4992 C   0  0  0  0  0  0  0  0  0  0  0  0
  -21.9115    0.3651   28.6188 C   0  0  0  0  0  0  0  0  0  0  0  0
  -22.8209    1.4979   28.5949 C   0  0  0  0  0  0  0  0  0  0  0  0
  -23.6395    1.7003   29.8089 C   0  0  0  0  0  0  0  0  0  0  0  0
  -24.0062    0.5727   30.5869 C   0  0  0  0  0  0  0  0  0  0  0  0
  2  7  1  0
  7  8  1  0
  7  9  1  0
  7 10  1  0
  6 11  1  0
 11 12  2  0
 11 13  1  0
  4 14  1  0
 14 15  1  0
 15 16  2  0
 16 17  1  0
 17 18  2  0
 18 19  1  0
 19 20  2  0
 20 15  1  0
  1  2  2  0
  2  3  1  0
  3  4  2  0
  4  5  1  0
  5  6  2  0
  6  1  1  0
M  END

$$$$
