No_415-gen_results/8p0m/2024-11-27-11-27-31/
     RDKit          3D

 21 22  0  0  0  0  0  0  0  0999 V2000
  -28.0162   -0.8135   28.8779 C   0  0  0  0  0  0  0  0  0  0  0  0
  -27.0636   -0.1189   28.6079 C   0  0  0  0  0  0  0  0  0  0  0  0
  -26.8756    1.1325   28.9134 C   0  0  0  0  0  0  0  0  0  0  0  0
  -27.9014    1.8066   29.6436 C   0  0  0  0  0  0  0  0  0  0  0  0
  -28.9449    1.0388   30.0360 C   0  0  0  0  0  0  0  0  0  0  0  0
  -29.0273   -0.2890   29.7051 C   0  0  0  0  0  0  0  0  0  0  0  0
  -25.6959    1.9505   28.4764 C   0  0  0  0  0  0  0  0  0  0  0  0
  -24.9391    2.5396   29.0692 C   0  0  0  0  0  0  0  0  0  0  0  0
  -25.5215    1.9951   27.0017 C   0  0  0  0  0  0  0  0  0  0  0  0
  -26.3228    1.3026   26.0810 C   0  0  0  0  0  0  0  0  0  0  0  0
  -24.9099    2.4927   30.4484 N   0  0  0  0  0  0  0  0  0  0  0  0
  -24.3918    2.7315   26.4718 C   0  0  0  0  0  0  0  0  0  0  0  0
  -23.4517    3.3478   27.1925 C   0  0  0  0  0  0  0  0  0  0  0  0
  -23.7109    3.2714   28.6004 C   0  0  0  0  0  0  0  0  0  0  0  0
  -30.0377   -1.0978   30.1061 O   0  0  0  0  0  0  0  0  0  0  0  0
  -24.7435    2.4599   31.5551 C   0  0  0  0  0  0  0  0  0  0  0  0
  -25.6845    2.6695   32.3201 N   0  0  0  0  0  0  0  0  0  0  0  0
  -26.3152    1.6801   33.1356 C   0  0  0  0  0  0  0  0  0  0  0  0
  -27.3742    2.1019   33.9991 C   0  0  0  0  0  0  0  0  0  0  0  0
  -27.6995    3.4582   33.9897 C   0  0  0  0  0  0  0  0  0  0  0  0
  -27.0189    4.4307   33.3344 C   0  0  0  0  0  0  0  0  0  0  0  0
  3  7  1  0
  9 10  1  0
  8 11  1  0
  6 15  1  0
 11 16  1  0
 16 17  2  3
 17 18  1  0
 18 19  2  3
 19 20  1  0
 20 21  2  0
  1  2  2  0
  2  3  1  0
  3  4  2  0
  4  5  1  0
  5  6  2  0
  6  1  1  0
  7  8  2  0
  8 14  1  0
 14 13  2  0
 13 12  1  0
 12  9  2  0
  9  7  1  0
M  END

$$$$
