No_4384-gen_results/8p0m/2024-11-27-11-27-31/
     RDKit          3D

 17 18  0  0  0  0  0  0  0  0999 V2000
  -28.0162   -0.8135   28.8779 C   0  0  0  0  0  0  0  0  0  0  0  0
  -28.4690   -0.7850   29.8287 C   0  0  0  0  0  0  0  0  0  0  0  0
  -27.0871    0.2903   28.6377 C   0  0  0  0  0  0  0  0  0  0  0  0
  -26.8317    1.2487   29.5869 C   0  0  0  0  0  0  0  0  0  0  0  0
  -28.3914    0.0801   31.0065 C   0  0  0  0  0  0  0  0  0  0  0  0
  -27.4940    1.1521   30.7841 C   0  0  0  0  0  0  0  0  0  0  0  0
  -26.3172    0.3994   27.3653 C   0  0  0  0  0  0  0  0  0  0  0  0
  -25.4794    1.4098   27.2651 N   0  0  0  0  0  0  0  0  0  0  0  0
  -24.5538    1.5490   26.5076 C   0  0  0  0  0  0  0  0  0  0  0  0
  -23.6082    2.7502   26.6297 C   0  0  0  0  0  0  0  0  0  0  0  0
  -26.4090   -0.4416   26.4931 O   0  0  0  0  0  0  0  0  0  0  0  0
  -25.0779    1.8036   25.0606 C   0  0  0  0  0  0  0  0  0  0  0  0
  -29.3747   -1.8862   30.1380 F   0  0  0  0  0  0  0  0  0  0  0  0
  -23.1336    2.9106   27.9841 C   0  0  0  0  0  0  0  0  0  0  0  0
  -23.8257    2.0922   29.0043 C   0  0  0  0  0  0  0  0  0  0  0  0
  -23.3071    2.1488   30.3281 N   0  0  0  0  0  0  0  0  0  0  0  0
  -24.9095    1.3900   28.6276 C   0  0  0  0  0  0  0  0  0  0  0  0
  3  7  1  0
  7  8  1  0
  8  9  1  0
  7 11  2  0
  9 12  1  0
  2 13  1  0
 10 14  1  0
 15 16  1  0
  8 17  1  0
 15 17  1  0
  9 10  1  0
 14 15  1  0
  1  2  2  0
  2  5  1  0
  5  6  2  0
  6  4  1  0
  4  3  2  0
  3  1  1  0
M  END

$$$$
