No_4596-gen_results/8p0m/2024-11-27-11-27-31/
     RDKit          3D

 18 20  0  0  0  0  0  0  0  0999 V2000
  -28.0162   -0.8135   28.8779 C   0  0  0  0  0  0  0  0  0  0  0  0
  -27.0636   -0.1190   28.6079 C   0  0  0  0  0  0  0  0  0  0  0  0
  -26.9716    0.7139   27.5060 C   0  0  0  0  0  0  0  0  0  0  0  0
  -28.1053    0.7744   26.6421 C   0  0  0  0  0  0  0  0  0  0  0  0
  -29.2008    0.1044   27.0527 C   0  0  0  0  0  0  0  0  0  0  0  0
  -29.2096   -0.6029   28.1853 C   0  0  0  0  0  0  0  0  0  0  0  0
  -30.4815    0.1441   26.3452 C   0  0  0  0  0  0  0  0  0  0  0  0
  -31.4212   -0.4197   26.6541 O   0  0  0  0  0  0  0  0  0  0  0  0
  -30.6243    1.0825   25.3858 O   0  0  0  0  0  0  0  0  0  0  0  0
  -25.6792   -0.2249   29.3947 C   0  0  0  0  0  0  0  0  0  0  0  0
  -25.2748   -1.0133   29.9297 C   0  0  0  0  0  0  0  0  0  0  0  0
  -23.9806   -1.0895   30.6681 C   0  0  0  0  0  0  0  0  0  0  0  0
  -23.1996   -0.1703   30.4315 C   0  0  0  0  0  0  0  0  0  0  0  0
  -23.5076    0.9631   29.6199 C   0  0  0  0  0  0  0  0  0  0  0  0
  -24.8285    0.9782   29.0021 C   0  0  0  0  0  0  0  0  0  0  0  0
  -25.2323    1.9269   28.2387 N   0  0  0  0  0  0  0  0  0  0  0  0
  -26.2250    1.8577   27.3738 C   0  0  0  0  0  0  0  0  0  0  0  0
  -26.2007    2.8871   25.9766 Cl  0  0  0  0  0  0  0  0  0  0  0  0
  5  7  1  0
  7  8  1  0
  7  9  2  0
  2 10  1  0
 15 16  1  0
  3 17  1  0
 16 17  1  0
 17 18  1  0
  1  2  2  0
  2  3  1  0
  3  4  2  0
  4  5  1  0
  5  6  2  0
  6  1  1  0
 10 11  2  0
 11 12  1  0
 12 13  2  0
 13 14  1  0
 14 15  2  0
 15 10  1  0
M  END

$$$$
