No_4812-gen_results/8p0m/2024-11-27-11-27-31/
     RDKit          3D

 32 35  0  0  0  0  0  0  0  0999 V2000
  -28.0162   -0.8135   28.8779 C   0  0  0  0  0  0  0  0  0  0  0  0
  -27.0636   -0.1189   28.6079 C   0  0  0  0  0  0  0  0  0  0  0  0
  -26.9716    0.7139   27.5060 C   0  0  0  0  0  0  0  0  0  0  0  0
  -25.8205    1.4909   27.1160 C   0  0  0  0  0  0  0  0  0  0  0  0
  -24.6562    1.4242   27.9180 C   0  0  0  0  0  0  0  0  0  0  0  0
  -23.4374    2.1089   27.6717 C   0  0  0  0  0  0  0  0  0  0  0  0
  -22.3580    1.9446   28.5138 C   0  0  0  0  0  0  0  0  0  0  0  0
  -25.7791   -0.1785   29.4032 C   0  0  0  0  0  0  0  0  0  0  0  0
  -24.5864    0.5466   29.1196 C   0  0  0  0  0  0  0  0  0  0  0  0
  -22.3741    0.9829   29.5073 C   0  0  0  0  0  0  0  0  0  0  0  0
  -23.4961    0.3055   29.8725 C   0  0  0  0  0  0  0  0  0  0  0  0
  -29.0780   -0.3671   30.2464 P   0  0  0  0  0  0  0  0  0  0  0  0
  -28.9699    0.8049   30.7042 O   0  0  0  0  0  0  0  0  0  0  0  0
  -30.5403   -0.5263   29.6346 O   0  0  0  0  0  0  0  0  0  0  0  0
  -28.9482   -1.4930   31.3057 O   0  0  0  0  0  0  0  0  0  0  0  0
  -30.9419   -0.9980   28.5999 C   0  0  0  0  0  0  0  0  0  0  0  0
  -31.5435   -0.1693   27.5983 C   0  0  0  0  0  0  0  0  0  0  0  0
  -31.3537   -0.4900   26.3832 O   0  0  0  0  0  0  0  0  0  0  0  0
  -31.8335   -2.1128   28.7250 O   0  0  0  0  0  0  0  0  0  0  0  0
  -28.1434    0.9010   26.6102 C   0  0  0  0  0  0  0  0  0  0  0  0
  -28.0575    1.0840   25.5253 C   0  0  0  0  0  0  0  0  0  0  0  0
  -26.8645    1.7737   24.9720 C   0  0  0  0  0  0  0  0  0  0  0  0
  -25.7483    1.9954   25.8279 C   0  0  0  0  0  0  0  0  0  0  0  0
  -30.9579    1.3044   27.6490 C   0  0  0  0  0  0  0  0  0  0  0  0
  -31.7057    2.2367   26.7565 C   0  0  0  0  0  0  0  0  0  0  0  0
  -32.7856    1.9858   26.2913 C   0  0  0  0  0  0  0  0  0  0  0  0
  -33.0173    2.4816   25.0512 C   0  0  0  0  0  0  0  0  0  0  0  0
  -31.0371    3.5042   26.5258 C   0  0  0  0  0  0  0  0  0  0  0  0
  -31.3418    4.2065   25.3919 C   0  0  0  0  0  0  0  0  0  0  0  0
  -34.2763    2.1266   24.2623 C   0  0  0  0  0  0  0  0  0  0  0  0
  -32.3639    3.6797   24.6122 C   0  0  0  0  0  0  0  0  0  0  0  0
  -35.2809    1.7681   24.6831 C   0  0  0  0  0  0  0  0  0  0  0  0
  1 12  1  0
 12 13  1  0
 12 14  1  0
 12 15  1  0
 14 16  1  0
 16 17  1  0
 17 18  2  0
 16 19  1  0
 17 24  1  0
 24 25  1  0
 27 30  1  0
 30 32  2  0
  1  2  1  0
 25 26  2  0
 26 27  1  0
 27 31  2  0
 31 29  1  0
 29 28  2  0
 28 25  1  0
  5  6  2  0
  6  7  1  0
  7 10  2  0
 10 11  1  0
 11  9  2  0
  2  3  1  0
  4  5  1  0
  5  9  1  0
  9  8  1  0
  8  2  2  0
  3  4  2  0
  4 23  1  0
 23 22  2  0
 22 21  1  0
 21 20  2  0
 20  3  1  0
M  END

$$$$
