No_4952-gen_results/8p0m/2024-11-27-11-27-31/
     RDKit          3D

 12 12  0  0  0  0  0  0  0  0999 V2000
  -28.0162   -0.8135   28.8779 C   0  0  0  0  0  0  0  0  0  0  0  0
  -27.0636   -0.1189   28.6079 C   0  0  0  0  0  0  0  0  0  0  0  0
  -27.0010    0.6913   27.4910 C   0  0  0  0  0  0  0  0  0  0  0  0
  -28.1373    0.7363   26.6350 C   0  0  0  0  0  0  0  0  0  0  0  0
  -29.2360    0.0765   27.0690 C   0  0  0  0  0  0  0  0  0  0  0  0
  -29.2177   -0.6429   28.1747 C   0  0  0  0  0  0  0  0  0  0  0  0
  -28.0326   -1.5744   30.0419 O   0  0  0  0  0  0  0  0  0  0  0  0
  -30.4169    0.1554   26.1870 C   0  0  0  0  0  0  0  0  0  0  0  0
  -31.2881   -0.5036   26.3432 O   0  0  0  0  0  0  0  0  0  0  0  0
  -30.3636    0.9884   25.0505 N   0  0  0  0  0  0  0  0  0  0  0  0
  -25.5129   -0.2082   29.5636 Cl  0  0  0  0  0  0  0  0  0  0  0  0
  -31.4923    1.1298   24.1331 C   0  0  0  0  0  0  0  0  0  0  0  0
  1  7  1  0
  5  8  1  0
  8  9  2  0
  8 10  1  0
  2 11  1  0
 10 12  1  0
  1  2  2  0
  2  3  1  0
  3  4  2  0
  4  5  1  0
  5  6  2  0
  6  1  1  0
M  END

$$$$
