No_4261-gen_results/8p0m/2024-11-27-11-27-31/
     RDKit          3D

 26 26  0  0  0  0  0  0  0  0999 V2000
  -28.0162   -0.8135   28.8779 C   0  0  0  0  0  0  0  0  0  0  0  0
  -28.4690   -0.7850   29.8287 C   0  0  0  0  0  0  0  0  0  0  0  0
  -27.1356    0.2359   28.5352 C   0  0  0  0  0  0  0  0  0  0  0  0
  -26.8745    1.2825   29.3982 C   0  0  0  0  0  0  0  0  0  0  0  0
  -28.3613    0.1987   30.9244 C   0  0  0  0  0  0  0  0  0  0  0  0
  -27.5277    1.2234   30.6356 C   0  0  0  0  0  0  0  0  0  0  0  0
  -26.3879    0.2914   27.2334 C   0  0  0  0  0  0  0  0  0  0  0  0
  -25.9211    1.4278   27.1199 F   0  0  0  0  0  0  0  0  0  0  0  0
  -25.4260   -0.6253   27.2072 F   0  0  0  0  0  0  0  0  0  0  0  0
  -27.2270    0.0742   26.1842 F   0  0  0  0  0  0  0  0  0  0  0  0
  -29.4009   -2.0184   30.3217 C   0  0  0  0  0  0  0  0  0  0  0  0
  -30.4760   -2.0194   30.0409 O   0  0  0  0  0  0  0  0  0  0  0  0
  -28.8238   -3.0184   30.9822 O   0  0  0  0  0  0  0  0  0  0  0  0
  -27.2783    2.3345   31.6101 C   0  0  0  0  0  0  0  0  0  0  0  0
  -27.4618    2.3580   32.6969 O   0  0  0  0  0  0  0  0  0  0  0  0
  -26.3324    3.2036   31.1010 O   0  0  0  0  0  0  0  0  0  0  0  0
  -25.8565    4.1039   31.9527 C   0  0  0  0  0  0  0  0  0  0  0  0
  -24.5836    4.7896   31.5218 C   0  0  0  0  0  0  0  0  0  0  0  0
  -25.0268    5.6267   30.5470 C   0  0  0  0  0  0  0  0  0  0  0  0
  -25.3211    5.1331   29.3703 O   0  0  0  0  0  0  0  0  0  0  0  0
  -23.9807    5.5599   32.6057 O   0  0  0  0  0  0  0  0  0  0  0  0
  -25.5124    5.7820   28.1763 C   0  0  0  0  0  0  0  0  0  0  0  0
  -25.3378    4.8716   27.0769 C   0  0  0  0  0  0  0  0  0  0  0  0
  -26.8808    6.3727   28.1235 C   0  0  0  0  0  0  0  0  0  0  0  0
  -27.8821    5.6916   28.8404 C   0  0  0  0  0  0  0  0  0  0  0  0
  -28.1224    4.5824   28.3420 O   0  0  0  0  0  0  0  0  0  0  0  0
  3  7  1  0
  7  8  1  0
  7  9  1  0
  7 10  1  0
  2 11  1  0
 11 12  2  0
 11 13  1  0
  6 14  1  0
 14 15  2  0
 14 16  1  0
 16 17  1  0
 17 18  1  0
 18 19  1  0
 19 20  1  0
 18 21  1  0
 20 22  1  0
 22 23  1  0
 22 24  1  0
 24 25  1  0
 25 26  2  0
  1  2  2  0
  2  5  1  0
  5  6  2  0
  6  4  1  0
  4  3  2  0
  3  1  1  0
M  END

$$$$
