No_4423-gen_results/8p0m/2024-11-27-11-27-31/
     RDKit          3D

  9  8  0  0  0  0  0  0  0  0999 V2000
  -28.0162   -0.8135   28.8779 C   0  0  0  0  0  0  0  0  0  0  0  0
  -27.0636   -0.1189   28.6079 C   0  0  0  0  0  0  0  0  0  0  0  0
  -26.9716    0.7139   27.5060 C   0  0  0  0  0  0  0  0  0  0  0  0
  -25.8206    1.4910   27.1160 C   0  0  0  0  0  0  0  0  0  0  0  0
  -24.6562    1.4242   27.9180 C   0  0  0  0  0  0  0  0  0  0  0  0
  -23.4374    2.1089   27.6717 C   0  0  0  0  0  0  0  0  0  0  0  0
  -22.3580    1.9446   28.5138 C   0  0  0  0  0  0  0  0  0  0  0  0
  -22.4085    0.9295   29.4963 C   0  0  0  0  0  0  0  0  0  0  0  0
  -23.5358    0.1938   29.7771 C   0  0  0  0  0  0  0  0  0  0  0  0
  1  2  2  0
  2  3  1  0
  3  4  1  0
  4  5  2  3
  5  6  1  0
  6  7  1  0
  7  8  2  3
  8  9  1  0
M  END

$$$$
