No_4679-gen_results/8p0m/2024-11-27-11-27-31/
     RDKit          3D

 19 20  0  0  0  0  0  0  0  0999 V2000
  -28.0162   -0.8135   28.8779 C   0  0  0  0  0  0  0  0  0  0  0  0
  -27.0636   -0.1189   28.6079 C   0  0  0  0  0  0  0  0  0  0  0  0
  -25.7647   -0.3897   29.0360 C   0  0  0  0  0  0  0  0  0  0  0  0
  -25.5296   -1.5302   29.9014 C   0  0  0  0  0  0  0  0  0  0  0  0
  -26.6888   -2.2893   30.1810 C   0  0  0  0  0  0  0  0  0  0  0  0
  -27.8727   -1.9508   29.7373 C   0  0  0  0  0  0  0  0  0  0  0  0
  -24.7078    0.5670   28.7015 C   0  0  0  0  0  0  0  0  0  0  0  0
  -24.4742    1.0182   27.4921 C   0  0  0  0  0  0  0  0  0  0  0  0
  -23.3287    1.8447   27.2216 C   0  0  0  0  0  0  0  0  0  0  0  0
  -22.2316    1.8530   28.0473 C   0  0  0  0  0  0  0  0  0  0  0  0
  -23.4890    0.5794   29.5565 C   0  0  0  0  0  0  0  0  0  0  0  0
  -22.3365    1.2053   29.2316 C   0  0  0  0  0  0  0  0  0  0  0  0
  -29.0247   -2.8040   30.1600 C   0  0  0  0  0  0  0  0  0  0  0  0
  -30.1757   -2.3588   30.1571 N   0  0  0  0  0  0  0  0  0  0  0  0
  -28.7733   -3.8357   30.8939 O   0  0  0  0  0  0  0  0  0  0  0  0
  -31.3701   -3.1062   30.5548 C   0  0  0  0  0  0  0  0  0  0  0  0
  -31.5575   -4.0229   30.9504 C   0  0  0  0  0  0  0  0  0  0  0  0
  -30.4308   -4.9181   31.2230 C   0  0  0  0  0  0  0  0  0  0  0  0
  -29.1724   -4.8222   31.2426 C   0  0  0  0  0  0  0  0  0  0  0  0
  3  7  1  0
  6 13  1  0
 13 14  1  0
 13 15  2  0
 14 16  1  0
 16 17  2  3
 17 18  1  0
 18 19  1  0
  7  8  2  0
  8  9  1  0
  9 10  2  0
 10 12  1  0
 12 11  2  0
 11  7  1  0
  1  2  2  0
  2  3  1  0
  3  4  2  0
  4  5  1  0
  5  6  2  0
  6  1  1  0
M  END

$$$$
