No_4602-gen_results/8p0m/2024-11-27-11-27-31/
     RDKit          3D

 11 11  0  0  0  0  0  0  0  0999 V2000
  -28.0727   -1.2542   28.5316 F   0  0  0  0  0  0  0  0  0  0  0  0
  -27.3591   -0.3792   28.7224 C   0  0  0  0  0  0  0  0  0  0  0  0
  -26.8100    0.1885   27.6513 C   0  0  0  0  0  0  0  0  0  0  0  0
  -26.3421   -0.8771   29.5718 F   0  0  0  0  0  0  0  0  0  0  0  0
  -27.9219    0.5452   29.5548 F   0  0  0  0  0  0  0  0  0  0  0  0
  -25.4481    0.4944   27.5840 C   0  0  0  0  0  0  0  0  0  0  0  0
  -24.7256    1.2025   26.5440 C   0  0  0  0  0  0  0  0  0  0  0  0
  -23.3475    1.4681   26.6814 C   0  0  0  0  0  0  0  0  0  0  0  0
  -22.6026    0.9535   27.7598 C   0  0  0  0  0  0  0  0  0  0  0  0
  -23.2558    0.1416   28.7162 C   0  0  0  0  0  0  0  0  0  0  0  0
  -24.5928   -0.0492   28.6435 C   0  0  0  0  0  0  0  0  0  0  0  0
  1  2  1  0
  2  3  1  0
  2  4  1  0
  2  5  1  0
  3  6  1  0
  6  7  2  0
  7  8  1  0
  8  9  2  0
  9 10  1  0
 10 11  2  0
 11  6  1  0
M  END

$$$$
