No_4467-gen_results/8p0m/2024-11-27-11-27-31/
     RDKit          3D

 21 22  0  0  0  0  0  0  0  0999 V2000
  -28.0162   -0.8135   28.8779 C   0  0  0  0  0  0  0  0  0  0  0  0
  -27.0636   -0.1190   28.6079 C   0  0  0  0  0  0  0  0  0  0  0  0
  -25.8176   -0.3427   29.0488 N   0  0  0  0  0  0  0  0  0  0  0  0
  -24.6506    0.4444   28.7649 C   0  0  0  0  0  0  0  0  0  0  0  0
  -24.7153    1.3122   27.7191 C   0  0  0  0  0  0  0  0  0  0  0  0
  -25.9996    1.5243   27.1533 C   0  0  0  0  0  0  0  0  0  0  0  0
  -27.0905    0.8203   27.5377 C   0  0  0  0  0  0  0  0  0  0  0  0
  -28.6356   -0.4028   30.2377 C   0  0  0  0  0  0  0  0  0  0  0  0
  -28.4951    0.4568   30.7461 C   0  0  0  0  0  0  0  0  0  0  0  0
  -29.1894    0.8046   32.1065 C   0  0  0  0  0  0  0  0  0  0  0  0
  -30.0127   -0.1671   32.6111 C   0  0  0  0  0  0  0  0  0  0  0  0
  -29.4580   -1.6286   30.8163 C   0  0  0  0  0  0  0  0  0  0  0  0
  -30.1284   -1.3890   32.0036 C   0  0  0  0  0  0  0  0  0  0  0  0
  -23.4988    2.0169   27.3387 C   0  0  0  0  0  0  0  0  0  0  0  0
  -23.3451    2.2583   26.1572 F   0  0  0  0  0  0  0  0  0  0  0  0
  -22.3069    1.2591   27.6770 F   0  0  0  0  0  0  0  0  0  0  0  0
  -23.4144    3.2058   28.0632 F   0  0  0  0  0  0  0  0  0  0  0  0
  -28.3624    1.1219   26.8818 C   0  0  0  0  0  0  0  0  0  0  0  0
  -28.7177    0.6871   25.8575 O   0  0  0  0  0  0  0  0  0  0  0  0
  -29.2258    1.9906   27.6026 N   0  0  0  0  0  0  0  0  0  0  0  0
  -30.5788    2.2618   27.1903 C   0  0  0  0  0  0  0  0  0  0  0  0
  1  2  1  0
  1  8  1  0
  5 14  1  0
 14 15  1  0
 14 16  1  0
 14 17  1  0
  7 18  1  0
 18 19  2  0
 18 20  1  0
 20 21  1  0
  2  3  2  0
  3  4  1  0
  4  5  2  0
  5  6  1  0
  6  7  2  0
  7  2  1  0
  8  9  2  0
  9 10  1  0
 10 11  2  0
 11 13  1  0
 13 12  2  0
 12  8  1  0
M  END

$$$$
