No_4926-gen_results/8p0m/2024-11-27-11-27-31/
     RDKit          3D

 33 35  0  0  0  0  0  0  0  0999 V2000
  -28.0162   -0.8135   28.8779 C   0  0  0  0  0  0  0  0  0  0  0  0
  -28.4690   -0.7850   29.8287 C   0  0  0  0  0  0  0  0  0  0  0  0
  -27.0871    0.2903   28.6377 C   0  0  0  0  0  0  0  0  0  0  0  0
  -26.8317    1.2487   29.5869 C   0  0  0  0  0  0  0  0  0  0  0  0
  -28.3914    0.0801   31.0065 C   0  0  0  0  0  0  0  0  0  0  0  0
  -27.4940    1.1521   30.7841 C   0  0  0  0  0  0  0  0  0  0  0  0
  -26.3172    0.3994   27.3653 C   0  0  0  0  0  0  0  0  0  0  0  0
  -24.9405    0.2550   27.5028 C   0  0  0  0  0  0  0  0  0  0  0  0
  -26.9129    0.5860   26.1397 C   0  0  0  0  0  0  0  0  0  0  0  0
  -28.2688    0.7168   25.9850 C   0  0  0  0  0  0  0  0  0  0  0  0
  -28.7657    0.7315   24.6860 C   0  0  0  0  0  0  0  0  0  0  0  0
  -30.1595    0.8701   24.4627 C   0  0  0  0  0  0  0  0  0  0  0  0
  -30.9938    0.9584   25.5406 C   0  0  0  0  0  0  0  0  0  0  0  0
  -30.5076    0.9507   26.8390 C   0  0  0  0  0  0  0  0  0  0  0  0
  -29.1995    0.8714   27.0780 C   0  0  0  0  0  0  0  0  0  0  0  0
  -26.0349    0.6779   25.0155 C   0  0  0  0  0  0  0  0  0  0  0  0
  -24.2252    1.1044   28.3703 C   0  0  0  0  0  0  0  0  0  0  0  0
  -23.3408    2.0228   27.8662 C   0  0  0  0  0  0  0  0  0  0  0  0
  -23.9700    0.6234   29.7166 C   0  0  0  0  0  0  0  0  0  0  0  0
  -31.6079    1.2904   27.7558 C   0  0  0  0  0  0  0  0  0  0  0  0
  -31.5118    2.0675   28.7310 F   0  0  0  0  0  0  0  0  0  0  0  0
  -32.7934    1.5299   27.1862 F   0  0  0  0  0  0  0  0  0  0  0  0
  -31.7909   -0.0073   28.4741 F   0  0  0  0  0  0  0  0  0  0  0  0
  -23.0679   -0.4838   29.9060 C   0  0  0  0  0  0  0  0  0  0  0  0
  -23.2476   -1.3124   31.0088 C   0  0  0  0  0  0  0  0  0  0  0  0
  -24.0877   -0.6684   32.0150 C   0  0  0  0  0  0  0  0  0  0  0  0
  -23.4628    1.6812   30.7914 C   0  0  0  0  0  0  0  0  0  0  0  0
  -24.2213    1.9662   31.7236 C   0  0  0  0  0  0  0  0  0  0  0  0
  -24.5532    0.4497   32.2425 C   0  0  0  0  0  0  0  0  0  0  0  0
  -29.3366   -0.0026   32.4019 Cl  0  0  0  0  0  0  0  0  0  0  0  0
  -24.6629    3.0863   32.3197 C   0  0  0  0  0  0  0  0  0  0  0  0
  -25.6376    3.1868   33.2348 N   0  0  0  0  0  0  0  0  0  0  0  0
  -26.0059    4.2844   33.9578 C   0  0  0  0  0  0  0  0  0  0  0  0
  3  7  1  0
  7  8  1  0
  7  9  1  0
  9 10  1  0
  9 16  1  0
  8 17  1  0
 17 18  2  0
 17 19  1  0
 14 20  1  0
 20 21  1  0
 20 22  1  0
 20 23  1  0
 19 24  1  0
 24 25  1  0
 25 26  1  0
 19 27  1  0
 27 28  1  0
 26 29  2  0
 28 29  1  0
  5 30  1  0
 28 31  1  0
 31 32  1  0
 32 33  1  0
  1  2  2  0
  2  5  1  0
  5  6  2  0
  6  4  1  0
  4  3  2  0
  3  1  1  0
 10 11  2  0
 11 12  1  0
 12 13  2  0
 13 14  1  0
 14 15  2  0
 15 10  1  0
M  END

$$$$
