No_418-gen_results/8p0m/2024-11-27-11-27-31/
     RDKit          3D

 18 20  0  0  0  0  0  0  0  0999 V2000
  -28.0162   -0.8135   28.8779 C   0  0  0  0  0  0  0  0  0  0  0  0
  -28.4690   -0.7850   29.8287 C   0  0  0  0  0  0  0  0  0  0  0  0
  -26.5042   -0.7777   28.8766 C   0  0  0  0  0  0  0  0  0  0  0  0
  -25.7622   -0.0022   27.9705 C   0  0  0  0  0  0  0  0  0  0  0  0
  -26.0931    0.6131   27.0948 C   0  0  0  0  0  0  0  0  0  0  0  0
  -25.2924    1.2851   26.1396 C   0  0  0  0  0  0  0  0  0  0  0  0
  -23.9069    1.3541   26.4095 C   0  0  0  0  0  0  0  0  0  0  0  0
  -23.3994    0.7728   27.5633 C   0  0  0  0  0  0  0  0  0  0  0  0
  -24.2633    0.1055   28.3863 C   0  0  0  0  0  0  0  0  0  0  0  0
  -28.0734   -1.5426   31.0560 C   0  0  0  0  0  0  0  0  0  0  0  0
  -26.6814   -1.7766   31.0620 C   0  0  0  0  0  0  0  0  0  0  0  0
  -25.9066   -1.4102   30.0652 C   0  0  0  0  0  0  0  0  0  0  0  0
  -24.4551   -1.4607   30.1229 C   0  0  0  0  0  0  0  0  0  0  0  0
  -23.6742   -0.6398   29.4762 C   0  0  0  0  0  0  0  0  0  0  0  0
  -22.0157    1.0121   27.8870 C   0  0  0  0  0  0  0  0  0  0  0  0
  -21.3912    0.7932   28.6448 C   0  0  0  0  0  0  0  0  0  0  0  0
  -21.5721   -0.2944   29.7261 C   0  0  0  0  0  0  0  0  0  0  0  0
  -22.3812   -0.5950   29.8682 C   0  0  0  0  0  0  0  0  0  0  0  0
  8 15  1  0
 15 16  2  3
 16 17  1  0
 17 18  2  0
  3  4  2  0
  9 14  2  0
 14 13  1  0
 13 12  2  0
  1  2  2  0
  2 10  1  0
 10 11  2  0
 11 12  1  0
 12  3  1  0
  3  1  1  0
  4  5  1  0
  5  6  2  0
  6  7  1  0
  7  8  2  0
  8  9  1  0
  9  4  1  0
M  END

$$$$
