No_4633-gen_results/8p0m/2024-11-27-11-27-31/
     RDKit          3D

 26 27  0  0  0  0  0  0  0  0999 V2000
  -28.0162   -0.8135   28.8779 C   0  0  0  0  0  0  0  0  0  0  0  0
  -27.0636   -0.1189   28.6079 C   0  0  0  0  0  0  0  0  0  0  0  0
  -27.0010    0.6913   27.4910 C   0  0  0  0  0  0  0  0  0  0  0  0
  -28.1373    0.7363   26.6350 C   0  0  0  0  0  0  0  0  0  0  0  0
  -29.2360    0.0765   27.0690 C   0  0  0  0  0  0  0  0  0  0  0  0
  -29.2177   -0.6429   28.1747 C   0  0  0  0  0  0  0  0  0  0  0  0
  -30.3222    0.1455   26.3092 F   0  0  0  0  0  0  0  0  0  0  0  0
  -25.7269   -0.1942   29.4070 C   0  0  0  0  0  0  0  0  0  0  0  0
  -25.4574   -0.9692   30.1187 C   0  0  0  0  0  0  0  0  0  0  0  0
  -24.1923   -1.0929   30.9176 C   0  0  0  0  0  0  0  0  0  0  0  0
  -23.2008   -0.1450   30.6669 C   0  0  0  0  0  0  0  0  0  0  0  0
  -23.4995    0.8586   29.6836 C   0  0  0  0  0  0  0  0  0  0  0  0
  -24.7537    0.8733   28.9956 C   0  0  0  0  0  0  0  0  0  0  0  0
  -28.0914    1.5379   25.5488 O   0  0  0  0  0  0  0  0  0  0  0  0
  -22.1923    2.1260   29.1981 Br  0  0  0  0  0  0  0  0  0  0  0  0
  -28.2018   -1.5550   30.0429 O   0  0  0  0  0  0  0  0  0  0  0  0
  -28.6404   -2.8552   29.9537 C   0  0  0  0  0  0  0  0  0  0  0  0
  -29.9297   -3.0253   30.4807 C   0  0  0  0  0  0  0  0  0  0  0  0
  -30.3337   -4.1624   29.9843 F   0  0  0  0  0  0  0  0  0  0  0  0
  -29.9379   -3.1137   31.8130 F   0  0  0  0  0  0  0  0  0  0  0  0
  -27.6699   -3.5164   30.8739 O   0  0  0  0  0  0  0  0  0  0  0  0
  -30.8626   -2.1783   30.1001 F   0  0  0  0  0  0  0  0  0  0  0  0
  -27.0177    1.4333   24.8754 C   0  0  0  0  0  0  0  0  0  0  0  0
  -26.2751    0.2546   24.9419 C   0  0  0  0  0  0  0  0  0  0  0  0
  -26.6133   -0.8095   25.5208 C   0  0  0  0  0  0  0  0  0  0  0  0
  -26.3047   -1.9612   25.3401 N   0  0  0  0  0  0  0  0  0  0  0  0
  5  7  1  0
  2  8  1  0
  4 14  1  0
 12 15  1  0
  1 16  1  0
 16 17  1  0
 17 18  1  0
 18 19  1  0
 18 20  1  0
 17 21  1  0
 18 22  1  0
 14 23  1  0
 23 24  1  0
 24 25  2  0
 25 26  2  0
  1  2  2  0
  2  3  1  0
  3  4  2  0
  4  5  1  0
  5  6  2  0
  6  1  1  0
  8  9  2  0
  9 10  1  0
 10 11  2  0
 11 12  1  0
 12 13  2  0
 13  8  1  0
M  END

$$$$
