No_444-gen_results/8p0m/2024-11-27-11-27-31/
     RDKit          3D

 21 21  0  0  0  0  0  0  0  0999 V2000
  -28.1229   -1.3353   28.4874 O   0  0  0  0  0  0  0  0  0  0  0  0
  -28.5208   -0.4363   29.0779 C   0  0  0  0  0  0  0  0  0  0  0  0
  -27.6655    0.1129   30.0346 C   0  0  0  0  0  0  0  0  0  0  0  0
  -29.5662    0.3302   28.6099 N   0  0  0  0  0  0  0  0  0  0  0  0
  -26.9528   -0.6475   30.7643 C   0  0  0  0  0  0  0  0  0  0  0  0
  -30.3151   -0.1911   27.5679 C   0  0  0  0  0  0  0  0  0  0  0  0
  -30.0868    1.5529   29.2106 C   0  0  0  0  0  0  0  0  0  0  0  0
  -26.0114   -1.4649   30.1223 C   0  0  0  0  0  0  0  0  0  0  0  0
  -24.9397   -0.8122   29.4063 C   0  0  0  0  0  0  0  0  0  0  0  0
  -25.1098    0.0261   28.6507 C   0  0  0  0  0  0  0  0  0  0  0  0
  -23.9452    0.6464   27.9472 C   0  0  0  0  0  0  0  0  0  0  0  0
  -22.6932    0.1859   28.3154 C   0  0  0  0  0  0  0  0  0  0  0  0
  -22.5379   -0.8194   29.2894 C   0  0  0  0  0  0  0  0  0  0  0  0
  -23.6879   -1.3414   29.8559 C   0  0  0  0  0  0  0  0  0  0  0  0
  -24.0266    1.7790   27.0050 C   0  0  0  0  0  0  0  0  0  0  0  0
  -24.7436    2.7653   27.2438 N   0  0  0  0  0  0  0  0  0  0  0  0
  -25.2900    3.5804   26.3524 C   0  0  0  0  0  0  0  0  0  0  0  0
  -23.2147    1.8009   26.0587 O   0  0  0  0  0  0  0  0  0  0  0  0
  -25.2931    3.0772   28.6081 C   0  0  0  0  0  0  0  0  0  0  0  0
  -26.2245    4.1478   28.6966 C   0  0  0  0  0  0  0  0  0  0  0  0
  -26.6704    4.4445   29.9819 C   0  0  0  0  0  0  0  0  0  0  0  0
  1  2  2  0
  2  3  1  0
  2  4  1  0
  3  5  1  0
  4  6  1  0
  4  7  1  0
  5  8  1  0
  8  9  1  0
 11 15  1  0
 15 16  1  0
 16 17  1  0
 15 18  2  0
 16 19  1  0
 19 20  2  3
 20 21  1  0
  9 10  2  0
 10 11  1  0
 11 12  2  0
 12 13  1  0
 13 14  2  0
 14  9  1  0
M  END

$$$$
