No_4678-gen_results/8p0m/2024-11-27-11-27-31/
     RDKit          3D

 13 13  0  0  0  0  0  0  0  0999 V2000
  -28.0162   -0.8135   28.8779 C   0  0  0  0  0  0  0  0  0  0  0  0
  -28.4690   -0.7850   29.8287 C   0  0  0  0  0  0  0  0  0  0  0  0
  -26.5042   -0.7777   28.8766 C   0  0  0  0  0  0  0  0  0  0  0  0
  -25.8103   -0.8531   30.1028 C   0  0  0  0  0  0  0  0  0  0  0  0
  -27.9906   -0.8916   31.2257 C   0  0  0  0  0  0  0  0  0  0  0  0
  -26.6042   -0.8676   31.2652 C   0  0  0  0  0  0  0  0  0  0  0  0
  -24.5534   -0.7870   30.1406 F   0  0  0  0  0  0  0  0  0  0  0  0
  -30.3866   -0.8390   29.8425 P   0  0  0  0  0  0  0  0  0  0  0  0
  -30.8834    0.1399   30.7605 O   0  0  0  0  0  0  0  0  0  0  0  0
  -30.8104   -2.1859   30.2447 O   0  0  0  0  0  0  0  0  0  0  0  0
  -30.7623   -0.5587   28.4481 O   0  0  0  0  0  0  0  0  0  0  0  0
  -25.6575   -0.6869   27.6696 C   0  0  0  0  0  0  0  0  0  0  0  0
  -24.3810   -0.1366   27.7964 C   0  0  0  0  0  0  0  0  0  0  0  0
  4  7  1  0
  2  8  1  0
  8  9  1  0
  8 10  1  0
  8 11  2  0
  3 12  1  0
 12 13  1  0
  1  2  2  0
  2  5  1  0
  5  6  2  0
  6  4  1  0
  4  3  2  0
  3  1  1  0
M  END

$$$$
