No_4328-gen_results/8p0m/2024-11-27-11-27-31/
     RDKit          3D

 23 24  0  0  0  0  0  0  0  0999 V2000
  -28.0162   -0.8135   28.8779 C   0  0  0  0  0  0  0  0  0  0  0  0
  -27.0636   -0.1190   28.6079 C   0  0  0  0  0  0  0  0  0  0  0  0
  -26.9716    0.7139   27.5060 C   0  0  0  0  0  0  0  0  0  0  0  0
  -28.1053    0.7744   26.6421 C   0  0  0  0  0  0  0  0  0  0  0  0
  -29.2008    0.1044   27.0527 C   0  0  0  0  0  0  0  0  0  0  0  0
  -28.0219   -1.5899   30.0879 C   0  0  0  0  0  0  0  0  0  0  0  0
  -29.1640   -0.6394   28.1484 C   0  0  0  0  0  0  0  0  0  0  0  0
  -28.8376   -1.8977   30.7662 N   0  0  0  0  0  0  0  0  0  0  0  0
  -26.7856   -1.9477   30.5474 O   0  0  0  0  0  0  0  0  0  0  0  0
  -30.2508   -1.5519   30.5150 C   0  0  0  0  0  0  0  0  0  0  0  0
  -30.3815    0.2120   26.1633 C   0  0  0  0  0  0  0  0  0  0  0  0
  -31.2958   -0.3586   26.3559 O   0  0  0  0  0  0  0  0  0  0  0  0
  -30.1857    0.7282   24.9371 O   0  0  0  0  0  0  0  0  0  0  0  0
  -30.8219   -0.7073   31.2934 C   0  0  0  0  0  0  0  0  0  0  0  0
  -32.1119   -0.1467   31.0061 C   0  0  0  0  0  0  0  0  0  0  0  0
  -32.8093   -0.7402   29.9352 C   0  0  0  0  0  0  0  0  0  0  0  0
  -32.2592   -1.7564   29.2197 C   0  0  0  0  0  0  0  0  0  0  0  0
  -30.9551   -2.1092   29.4767 C   0  0  0  0  0  0  0  0  0  0  0  0
  -28.8816   -2.7782   31.9899 C   0  0  0  0  0  0  0  0  0  0  0  0
  -29.1116   -2.1336   33.2126 C   0  0  0  0  0  0  0  0  0  0  0  0
  -28.3247   -2.5826   34.1320 F   0  0  0  0  0  0  0  0  0  0  0  0
  -29.0098   -0.7899   33.1387 F   0  0  0  0  0  0  0  0  0  0  0  0
  -30.4167   -2.4258   33.5827 F   0  0  0  0  0  0  0  0  0  0  0  0
  1  6  1  0
  6  8  1  0
  6  9  2  0
  8 10  1  0
  5 11  1  0
 11 12  1  0
 11 13  2  0
  8 19  1  0
 19 20  1  0
 20 21  1  0
 20 22  1  0
 20 23  1  0
  1  2  2  0
  2  3  1  0
  3  4  2  0
  4  5  1  0
  5  7  2  0
  7  1  1  0
 10 14  2  0
 14 15  1  0
 15 16  2  0
 16 17  1  0
 17 18  2  0
 18 10  1  0
M  END

$$$$
