No_4110-gen_results/8p0m/2024-11-27-11-27-31/
     RDKit          3D

 13 14  0  0  0  0  0  0  0  0999 V2000
  -28.0162   -0.8135   28.8779 C   0  0  0  0  0  0  0  0  0  0  0  0
  -27.0636   -0.1189   28.6079 C   0  0  0  0  0  0  0  0  0  0  0  0
  -26.9287    1.1713   29.0083 C   0  0  0  0  0  0  0  0  0  0  0  0
  -27.9560    1.7411   29.7840 C   0  0  0  0  0  0  0  0  0  0  0  0
  -29.0569   -0.3271   29.7466 C   0  0  0  0  0  0  0  0  0  0  0  0
  -28.9828    0.9722   30.1516 C   0  0  0  0  0  0  0  0  0  0  0  0
  -26.0278   -0.5935   27.8711 F   0  0  0  0  0  0  0  0  0  0  0  0
  -30.0765    1.5021   31.0081 C   0  0  0  0  0  0  0  0  0  0  0  0
  -31.1057    1.9506   30.7304 C   0  0  0  0  0  0  0  0  0  0  0  0
  -32.0925    2.4855   31.6581 C   0  0  0  0  0  0  0  0  0  0  0  0
  -29.7055    1.4100   32.4762 C   0  0  0  0  0  0  0  0  0  0  0  0
  -30.5941    1.9107   33.4274 C   0  0  0  0  0  0  0  0  0  0  0  0
  -31.7742    2.4500   33.0120 C   0  0  0  0  0  0  0  0  0  0  0  0
  2  7  1  0
  6  8  1  0
  8  9  2  0
  9 10  1  0
 10 13  2  0
 13 12  1  0
 12 11  2  0
 11  8  1  0
  1  2  2  0
  2  3  1  0
  3  4  2  0
  4  6  1  0
  6  5  2  0
  5  1  1  0
M  END

$$$$
