No_4845-gen_results/8p0m/2024-11-27-11-27-31/
     RDKit          3D

 23 24  0  0  0  0  0  0  0  0999 V2000
  -28.0162   -0.8135   28.8779 C   0  0  0  0  0  0  0  0  0  0  0  0
  -28.4690   -0.7850   29.8287 C   0  0  0  0  0  0  0  0  0  0  0  0
  -28.1960    0.3478   28.0550 C   0  0  0  0  0  0  0  0  0  0  0  0
  -27.4421    0.5100   26.7946 C   0  0  0  0  0  0  0  0  0  0  0  0
  -27.8427    1.3330   25.8056 C   0  0  0  0  0  0  0  0  0  0  0  0
  -28.2558   -1.9271   30.8901 C   0  0  0  0  0  0  0  0  0  0  0  0
  -27.4492   -2.9641   30.4317 C   0  0  0  0  0  0  0  0  0  0  0  0
  -26.6412   -2.8044   29.3509 C   0  0  0  0  0  0  0  0  0  0  0  0
  -26.7826   -1.6363   28.6124 C   0  0  0  0  0  0  0  0  0  0  0  0
  -29.5890    0.4084   27.6120 O   0  0  0  0  0  0  0  0  0  0  0  0
  -27.0202    2.2828   25.3348 C   0  0  0  0  0  0  0  0  0  0  0  0
  -25.5678   -3.7671   29.1043 C   0  0  0  0  0  0  0  0  0  0  0  0
  -24.2801   -3.7938   29.3897 C   0  0  0  0  0  0  0  0  0  0  0  0
  -26.1609   -5.2016   29.0595 C   0  0  0  0  0  0  0  0  0  0  0  0
  -28.3929    0.4893   24.5759 C   0  0  0  0  0  0  0  0  0  0  0  0
  -25.2372   -5.9703   29.3449 N   0  0  0  0  0  0  0  0  0  0  0  0
  -23.9642   -5.1820   29.1898 C   0  0  0  0  0  0  0  0  0  0  0  0
  -27.8632    1.7408   28.7742 C   0  0  0  0  0  0  0  0  0  0  0  0
  -26.7059    1.9735   29.1978 C   0  0  0  0  0  0  0  0  0  0  0  0
  -26.4840    3.1791   29.8767 C   0  0  0  0  0  0  0  0  0  0  0  0
  -25.2253    3.3999   30.4827 C   0  0  0  0  0  0  0  0  0  0  0  0
  -24.1814    2.4904   30.3020 C   0  0  0  0  0  0  0  0  0  0  0  0
  -24.3810    1.3259   29.5716 C   0  0  0  0  0  0  0  0  0  0  0  0
  1  3  1  0
  3  4  1  0
  4  5  1  0
  3 10  1  0
  5 11  2  0
  8 12  1  0
 12 13  1  0
 12 14  1  0
  5 15  1  0
 14 16  1  0
 13 17  2  0
 16 17  1  0
  3 18  1  0
 18 19  2  3
 19 20  1  0
 20 21  2  3
 21 22  1  0
 22 23  2  0
  1  2  2  0
  2  6  1  0
  6  7  2  0
  7  8  1  0
  8  9  2  0
  9  1  1  0
M  END

$$$$
