No_4465-gen_results/8p0m/2024-11-27-11-27-31/
     RDKit          3D

 18 20  0  0  0  0  0  0  0  0999 V2000
  -28.0162   -0.8135   28.8779 C   0  0  0  0  0  0  0  0  0  0  0  0
  -27.0636   -0.1190   28.6079 C   0  0  0  0  0  0  0  0  0  0  0  0
  -27.0010    0.6913   27.4910 C   0  0  0  0  0  0  0  0  0  0  0  0
  -25.8548    1.4825   27.0830 C   0  0  0  0  0  0  0  0  0  0  0  0
  -24.6901    1.4526   27.8807 C   0  0  0  0  0  0  0  0  0  0  0  0
  -24.7379    0.6010   29.0416 C   0  0  0  0  0  0  0  0  0  0  0  0
  -25.8234   -0.1688   29.3887 C   0  0  0  0  0  0  0  0  0  0  0  0
  -27.9524   -1.6294   30.0643 N   0  0  0  0  0  0  0  0  0  0  0  0
  -29.0363   -2.3695   30.4865 C   0  0  0  0  0  0  0  0  0  0  0  0
  -30.1919   -1.9598   29.9681 C   0  0  0  0  0  0  0  0  0  0  0  0
  -30.3399   -1.0071   29.0541 C   0  0  0  0  0  0  0  0  0  0  0  0
  -29.2574   -0.3633   28.6021 C   0  0  0  0  0  0  0  0  0  0  0  0
  -23.5128    2.2121   27.5615 C   0  0  0  0  0  0  0  0  0  0  0  0
  -22.5167    2.2222   28.3700 N   0  0  0  0  0  0  0  0  0  0  0  0
  -23.4458    2.8011   26.3332 N   0  0  0  0  0  0  0  0  0  0  0  0
  -29.4046    0.5170   27.6194 O   0  0  0  0  0  0  0  0  0  0  0  0
  -28.2422    1.0496   26.9854 C   0  0  0  0  0  0  0  0  0  0  0  0
  -28.4614    1.8471   26.0177 O   0  0  0  0  0  0  0  0  0  0  0  0
  1  2  1  0
  5 13  1  0
 13 14  2  0
 13 15  1  0
 12 16  1  0
  3 17  1  0
 16 17  1  0
 17 18  2  0
  2  3  1  0
  3  4  2  0
  4  5  1  0
  5  6  2  0
  6  7  1  0
  7  2  2  0
  1  8  2  0
  8  9  1  0
  9 10  2  0
 10 11  1  0
 11 12  2  0
 12  1  1  0
M  END

$$$$
