No_4092-gen_results/8p0m/2024-11-27-11-27-31/
     RDKit          3D

 17 19  0  0  0  0  0  0  0  0999 V2000
  -28.0162   -0.8135   28.8779 C   0  0  0  0  0  0  0  0  0  0  0  0
  -28.4690   -0.7850   29.8287 C   0  0  0  0  0  0  0  0  0  0  0  0
  -28.1816    0.4277   28.1134 C   0  0  0  0  0  0  0  0  0  0  0  0
  -28.9841    1.4155   28.5154 C   0  0  0  0  0  0  0  0  0  0  0  0
  -28.3375   -2.0481   30.7873 C   0  0  0  0  0  0  0  0  0  0  0  0
  -29.1447    2.5845   27.7436 C   0  0  0  0  0  0  0  0  0  0  0  0
  -29.1207   -2.2166   31.9436 C   0  0  0  0  0  0  0  0  0  0  0  0
  -29.3348    0.2712   30.4215 C   0  0  0  0  0  0  0  0  0  0  0  0
  -29.5212    1.3158   29.7058 C   0  0  0  0  0  0  0  0  0  0  0  0
  -29.7843   -1.2045   32.4201 C   0  0  0  0  0  0  0  0  0  0  0  0
  -29.9593   -0.0704   31.7616 C   0  0  0  0  0  0  0  0  0  0  0  0
  -27.5861   -3.0828   30.3248 O   0  0  0  0  0  0  0  0  0  0  0  0
  -27.4609    0.4573   26.7245 C   0  0  0  0  0  0  0  0  0  0  0  0
  -26.1882   -0.0585   26.5510 C   0  0  0  0  0  0  0  0  0  0  0  0
  -25.5162    0.1735   25.3503 C   0  0  0  0  0  0  0  0  0  0  0  0
  -26.3293    0.6639   24.3376 C   0  0  0  0  0  0  0  0  0  0  0  0
  -27.8410    1.0546   25.4940 C   0  0  0  0  0  0  0  0  0  0  0  0
  2  5  1  0
  5  7  1  0
  8 11  1  0
 10 11  1  0
  5 12  2  0
  3 13  1  0
 13 14  2  0
 14 15  1  0
 15 16  2  0
 13 17  1  0
 16 17  1  0
  6  4  1  0
 10  7  1  0
  1  2  2  0
  2  8  1  0
  8  9  2  0
  9  4  1  0
  4  3  2  0
  3  1  1  0
M  END

$$$$
