No_4255-gen_results/8p0m/2024-11-27-11-27-31/
     RDKit          3D

 34 38  0  0  0  0  0  0  0  0999 V2000
  -28.0162   -0.8135   28.8779 C   0  0  0  0  0  0  0  0  0  0  0  0
  -27.0636   -0.1189   28.6079 C   0  0  0  0  0  0  0  0  0  0  0  0
  -25.7923   -0.4302   29.0761 C   0  0  0  0  0  0  0  0  0  0  0  0
  -25.2700   -0.0487   30.0123 C   0  0  0  0  0  0  0  0  0  0  0  0
  -28.5191   -0.6302   30.0918 C   0  0  0  0  0  0  0  0  0  0  0  0
  -27.6457   -0.5646   31.3559 C   0  0  0  0  0  0  0  0  0  0  0  0
  -26.2550   -0.2092   31.4004 C   0  0  0  0  0  0  0  0  0  0  0  0
  -29.8542   -1.0864   30.5161 C   0  0  0  0  0  0  0  0  0  0  0  0
  -30.1493   -2.2812   30.7905 C   0  0  0  0  0  0  0  0  0  0  0  0
  -31.4887   -2.7855   30.9997 C   0  0  0  0  0  0  0  0  0  0  0  0
  -32.4994   -1.8382   30.8514 C   0  0  0  0  0  0  0  0  0  0  0  0
  -30.9196   -0.3898   30.0350 C   0  0  0  0  0  0  0  0  0  0  0  0
  -32.1829   -0.6374   30.3219 C   0  0  0  0  0  0  0  0  0  0  0  0
  -33.2847    0.3132   29.9900 C   0  0  0  0  0  0  0  0  0  0  0  0
  -34.1464    0.6099   30.6250 N   0  0  0  0  0  0  0  0  0  0  0  0
  -33.0945    0.9512   28.8417 O   0  0  0  0  0  0  0  0  0  0  0  0
  -35.0890    1.4339   30.6383 C   0  0  0  0  0  0  0  0  0  0  0  0
  -35.7173    2.0085   31.3785 C   0  0  0  0  0  0  0  0  0  0  0  0
  -35.5525    1.5741   29.2260 C   0  0  0  0  0  0  0  0  0  0  0  0
  -36.7218    2.3673   28.9537 C   0  0  0  0  0  0  0  0  0  0  0  0
  -36.8576    2.8375   31.3220 C   0  0  0  0  0  0  0  0  0  0  0  0
  -37.3154    3.0097   30.0094 C   0  0  0  0  0  0  0  0  0  0  0  0
  -38.5543    3.8004   29.9129 C   0  0  0  0  0  0  0  0  0  0  0  0
  -39.3138    3.9993   30.5571 O   0  0  0  0  0  0  0  0  0  0  0  0
  -38.3844    4.5874   28.7630 O   0  0  0  0  0  0  0  0  0  0  0  0
  -26.8674    0.3247   27.0952 C   0  0  0  0  0  0  0  0  0  0  0  0
  -26.4952    1.6332   26.9088 C   0  0  0  0  0  0  0  0  0  0  0  0
  -26.3548    2.3556   27.7618 C   0  0  0  0  0  0  0  0  0  0  0  0
  -25.8597    3.7888   27.5498 C   0  0  0  0  0  0  0  0  0  0  0  0
  -25.6989    4.7478   28.5453 C   0  0  0  0  0  0  0  0  0  0  0  0
  -25.9648    4.3317   29.8635 C   0  0  0  0  0  0  0  0  0  0  0  0
  -26.4098    3.0523   30.1349 C   0  0  0  0  0  0  0  0  0  0  0  0
  -26.5814    2.2269   29.1762 C   0  0  0  0  0  0  0  0  0  0  0  0
  -26.5481    1.2234   29.6100 O   0  0  0  0  0  0  0  0  0  0  0  0
  1  2  1  0
  2  3  1  0
  3  4  2  0
  1  5  1  0
  5  6  1  0
  4  7  1  0
  6  7  2  0
  5  8  1  0
  8  9  2  0
  9 10  1  0
 10 11  2  0
  8 12  1  0
 11 13  1  0
 12 13  1  0
 13 14  1  0
 14 15  1  0
 14 16  2  0
 15 17  1  0
 17 18  2  0
 17 19  1  0
 19 20  2  0
 18 21  1  0
 20 22  1  0
 21 22  1  0
 22 23  1  0
 23 24  1  0
 23 25  2  0
  2 26  1  0
 26 27  1  0
 27 28  2  0
 28 29  1  0
 29 30  2  0
 30 31  1  0
 31 32  2  0
 28 33  1  0
 32 33  1  0
  2 34  1  0
 33 34  1  0
M  END

$$$$
