No_4850-gen_results/8p0m/2024-11-27-11-27-31/
     RDKit          3D

 15 17  0  0  0  0  0  0  0  0999 V2000
  -28.0162   -0.8135   28.8779 C   0  0  0  0  0  0  0  0  0  0  0  0
  -28.4690   -0.7850   29.8287 C   0  0  0  0  0  0  0  0  0  0  0  0
  -28.1816    0.4277   28.1134 C   0  0  0  0  0  0  0  0  0  0  0  0
  -28.9841    1.4155   28.5154 C   0  0  0  0  0  0  0  0  0  0  0  0
  -29.3802    0.1384   30.4612 C   0  0  0  0  0  0  0  0  0  0  0  0
  -29.5415    1.2736   29.7242 C   0  0  0  0  0  0  0  0  0  0  0  0
  -27.4586    0.4934   26.7701 C   0  0  0  0  0  0  0  0  0  0  0  0
  -26.0264    0.3840   26.7617 C   0  0  0  0  0  0  0  0  0  0  0  0
  -25.2370    0.2056   27.9261 C   0  0  0  0  0  0  0  0  0  0  0  0
  -23.8683    0.2883   27.8607 C   0  0  0  0  0  0  0  0  0  0  0  0
  -23.0639   -0.0681   29.0056 C   0  0  0  0  0  0  0  0  0  0  0  0
  -23.6890   -0.6812   30.0781 C   0  0  0  0  0  0  0  0  0  0  0  0
  -24.9968   -0.8923   30.0923 C   0  0  0  0  0  0  0  0  0  0  0  0
  -25.7685   -0.4972   29.0781 C   0  0  0  0  0  0  0  0  0  0  0  0
  -26.9919   -0.8034   29.1110 N   0  0  0  0  0  0  0  0  0  0  0  0
  3  7  1  0
  7  8  2  0
  8  9  1  0
  1 15  1  0
 14 15  1  0
  9 10  2  0
 10 11  1  0
 11 12  2  0
 12 13  1  0
 13 14  2  0
 14  9  1  0
  1  2  2  0
  2  5  1  0
  5  6  2  0
  6  4  1  0
  4  3  2  0
  3  1  1  0
M  END

$$$$
