No_4298-gen_results/8p0m/2024-11-27-11-27-31/
     RDKit          3D

 18 20  0  0  0  0  0  0  0  0999 V2000
  -28.0162   -0.8135   28.8779 C   0  0  0  0  0  0  0  0  0  0  0  0
  -28.4690   -0.7850   29.8287 C   0  0  0  0  0  0  0  0  0  0  0  0
  -27.1356    0.2359   28.5352 C   0  0  0  0  0  0  0  0  0  0  0  0
  -26.3351    0.2900   27.2835 C   0  0  0  0  0  0  0  0  0  0  0  0
  -28.3692    0.1957   30.9236 C   0  0  0  0  0  0  0  0  0  0  0  0
  -27.5158    1.2655   30.6540 C   0  0  0  0  0  0  0  0  0  0  0  0
  -26.8411    1.2942   29.4761 C   0  0  0  0  0  0  0  0  0  0  0  0
  -25.3612    0.7751   26.9673 C   0  0  0  0  0  0  0  0  0  0  0  0
  -24.8302    1.7669   28.0168 C   0  0  0  0  0  0  0  0  0  0  0  0
  -25.5666    2.0015   29.2021 C   0  0  0  0  0  0  0  0  0  0  0  0
  -23.6076    2.5924   27.6643 C   0  0  0  0  0  0  0  0  0  0  0  0
  -22.9138    2.2684   26.5628 N   0  0  0  0  0  0  0  0  0  0  0  0
  -23.4564    1.4776   25.5851 C   0  0  0  0  0  0  0  0  0  0  0  0
  -24.5860    0.7141   25.8019 C   0  0  0  0  0  0  0  0  0  0  0  0
  -25.6473    3.5575   29.6261 C   0  0  0  0  0  0  0  0  0  0  0  0
  -24.5189    1.5119   30.2945 C   0  0  0  0  0  0  0  0  0  0  0  0
  -26.5272    3.8343   30.0680 O   0  0  0  0  0  0  0  0  0  0  0  0
  -24.8050    4.3429   29.0075 O   0  0  0  0  0  0  0  0  0  0  0  0
  3  4  1  0
  7 10  1  0
  9 10  1  0
 10 15  1  0
 10 16  1  0
 15 17  2  0
 15 18  1  0
  4  8  1  0
  8  9  2  0
  9 11  1  0
 11 12  2  0
 12 13  1  0
 13 14  2  0
 14  8  1  0
  1  2  2  0
  2  5  1  0
  5  6  2  0
  6  7  1  0
  7  3  2  0
  3  1  1  0
M  END

$$$$
