No_4713-gen_results/8p0m/2024-11-27-11-27-31/
     RDKit          3D

 18 20  0  0  0  0  0  0  0  0999 V2000
  -28.0162   -0.8135   28.8779 C   0  0  0  0  0  0  0  0  0  0  0  0
  -28.4690   -0.7850   29.8287 C   0  0  0  0  0  0  0  0  0  0  0  0
  -27.1356    0.2359   28.5352 C   0  0  0  0  0  0  0  0  0  0  0  0
  -26.8745    1.2825   29.3982 C   0  0  0  0  0  0  0  0  0  0  0  0
  -28.3613    0.1987   30.9244 C   0  0  0  0  0  0  0  0  0  0  0  0
  -27.5277    1.2234   30.6356 C   0  0  0  0  0  0  0  0  0  0  0  0
  -26.4794    0.2574   27.3632 F   0  0  0  0  0  0  0  0  0  0  0  0
  -29.0697    0.0996   32.2304 C   0  0  0  0  0  0  0  0  0  0  0  0
  -30.3370    0.2561   32.2985 C   0  0  0  0  0  0  0  0  0  0  0  0
  -31.1157    0.6125   31.1572 C   0  0  0  0  0  0  0  0  0  0  0  0
  -32.5485    0.7706   31.2919 C   0  0  0  0  0  0  0  0  0  0  0  0
  -33.2565    1.1954   30.1905 C   0  0  0  0  0  0  0  0  0  0  0  0
  -32.5742    1.3840   28.9545 C   0  0  0  0  0  0  0  0  0  0  0  0
  -31.2169    1.1978   28.8405 C   0  0  0  0  0  0  0  0  0  0  0  0
  -30.4804    0.8134   29.9656 C   0  0  0  0  0  0  0  0  0  0  0  0
  -29.4450    0.6781   29.6131 O   0  0  0  0  0  0  0  0  0  0  0  0
  -27.3029   -0.2785   31.5471 F   0  0  0  0  0  0  0  0  0  0  0  0
  -28.6323   -1.1803   33.0543 C   0  0  0  0  0  0  0  0  0  0  0  0
  1  2  2  0
  1  3  1  0
  3  4  2  0
  2  5  1  0
  4  6  1  0
  5  6  1  0
  3  7  1  0
  5  8  1  0
  8  9  2  0
  9 10  1  0
  2 16  1  0
 15 16  1  0
  5 17  1  0
  8 18  1  0
 10 11  2  0
 11 12  1  0
 12 13  2  0
 13 14  1  0
 14 15  2  0
 15 10  1  0
M  END

$$$$
