No_4350-gen_results/8p0m/2024-11-27-11-27-31/
     RDKit          3D

 17 18  0  0  0  0  0  0  0  0999 V2000
  -28.0162   -0.8135   28.8779 C   0  0  0  0  0  0  0  0  0  0  0  0
  -28.4690   -0.7850   29.8287 C   0  0  0  0  0  0  0  0  0  0  0  0
  -26.5042   -0.7777   28.8766 C   0  0  0  0  0  0  0  0  0  0  0  0
  -25.8103   -0.8531   30.1028 C   0  0  0  0  0  0  0  0  0  0  0  0
  -27.9906   -0.8916   31.2257 C   0  0  0  0  0  0  0  0  0  0  0  0
  -26.6042   -0.8676   31.2652 C   0  0  0  0  0  0  0  0  0  0  0  0
  -29.9203   -0.8331   29.8239 F   0  0  0  0  0  0  0  0  0  0  0  0
  -24.3796   -0.8022   30.1424 C   0  0  0  0  0  0  0  0  0  0  0  0
  -23.6617   -1.3645   30.7155 C   0  0  0  0  0  0  0  0  0  0  0  0
  -23.7616    0.2278   29.2221 C   0  0  0  0  0  0  0  0  0  0  0  0
  -22.3781    0.3257   29.1338 C   0  0  0  0  0  0  0  0  0  0  0  0
  -22.2140   -1.3185   30.8402 C   0  0  0  0  0  0  0  0  0  0  0  0
  -21.7601    1.2411   28.1665 C   0  0  0  0  0  0  0  0  0  0  0  0
  -21.5653   -0.4812   29.9605 C   0  0  0  0  0  0  0  0  0  0  0  0
  -20.5829    1.6277   28.3221 O   0  0  0  0  0  0  0  0  0  0  0  0
  -22.5004    1.6706   27.1734 O   0  0  0  0  0  0  0  0  0  0  0  0
  -25.7150   -0.8552   27.8256 F   0  0  0  0  0  0  0  0  0  0  0  0
  2  7  1  0
  4  8  1  0
 11 13  1  0
 13 15  2  0
 13 16  1  0
  3 17  1  0
  8  9  2  0
  9 12  1  0
 12 14  2  0
 14 11  1  0
 11 10  2  0
 10  8  1  0
  1  2  2  0
  2  5  1  0
  5  6  2  0
  6  4  1  0
  4  3  2  0
  3  1  1  0
M  END

$$$$
