No_4310-gen_results/8p0m/2024-11-27-11-27-31/
     RDKit          3D

 24 26  0  0  0  0  0  0  0  0999 V2000
  -28.0162   -0.8135   28.8779 C   0  0  0  0  0  0  0  0  0  0  0  0
  -28.4690   -0.7850   29.8287 C   0  0  0  0  0  0  0  0  0  0  0  0
  -26.5042   -0.7777   28.8766 C   0  0  0  0  0  0  0  0  0  0  0  0
  -25.6540   -0.6597   27.7191 C   0  0  0  0  0  0  0  0  0  0  0  0
  -27.9180   -0.9374   31.1824 C   0  0  0  0  0  0  0  0  0  0  0  0
  -26.5423   -0.9399   31.2606 C   0  0  0  0  0  0  0  0  0  0  0  0
  -25.7832   -0.8935   30.1201 C   0  0  0  0  0  0  0  0  0  0  0  0
  -24.3632   -0.5034   27.8686 N   0  0  0  0  0  0  0  0  0  0  0  0
  -23.6823   -0.6782   29.0280 C   0  0  0  0  0  0  0  0  0  0  0  0
  -24.3893   -0.7737   30.2235 C   0  0  0  0  0  0  0  0  0  0  0  0
  -22.3233   -0.5436   29.0208 N   0  0  0  0  0  0  0  0  0  0  0  0
  -21.6820    0.5457   28.4852 C   0  0  0  0  0  0  0  0  0  0  0  0
  -22.4109    1.7721   28.1135 C   0  0  0  0  0  0  0  0  0  0  0  0
  -20.4082    0.7145   28.8040 O   0  0  0  0  0  0  0  0  0  0  0  0
  -30.0651   -0.8385   29.8597 C   0  0  0  0  0  0  0  0  0  0  0  0
  -30.5134   -0.2922   28.9841 O   0  0  0  0  0  0  0  0  0  0  0  0
  -30.7636   -1.4694   30.8532 N   0  0  0  0  0  0  0  0  0  0  0  0
  -32.1956   -1.4872   30.8056 C   0  0  0  0  0  0  0  0  0  0  0  0
  -32.7180   -2.3560   31.4442 C   0  0  0  0  0  0  0  0  0  0  0  0
  -32.0240   -3.2034   32.4306 C   0  0  0  0  0  0  0  0  0  0  0  0
  -30.6084   -3.1704   32.4389 C   0  0  0  0  0  0  0  0  0  0  0  0
  -30.0007   -2.4237   31.6112 C   0  0  0  0  0  0  0  0  0  0  0  0
  -28.6707   -2.2242   31.8129 F   0  0  0  0  0  0  0  0  0  0  0  0
  -29.6077   -3.4853   30.4324 C   0  0  0  0  0  0  0  0  0  0  0  0
  9 11  1  0
 11 12  1  0
 12 13  1  0
 12 14  2  0
  2 15  1  0
 15 16  2  0
 15 17  1  0
 17 18  1  0
 19 20  1  0
 17 22  1  0
 21 22  1  0
  5 23  1  0
 22 24  1  0
 18 19  1  0
 20 21  1  0
  1  2  2  0
  2  5  1  0
  5  6  2  0
  6  7  1  0
  3  1  1  0
  3  4  2  0
  4  8  1  0
  8  9  2  0
  9 10  1  0
 10  7  2  0
  7  3  1  0
M  END

$$$$
