No_4394-gen_results/8p0m/2024-11-27-11-27-31/
     RDKit          3D

 23 25  0  0  0  0  0  0  0  0999 V2000
  -28.0162   -0.8135   28.8779 C   0  0  0  0  0  0  0  0  0  0  0  0
  -28.4690   -0.7850   29.8287 C   0  0  0  0  0  0  0  0  0  0  0  0
  -26.5042   -0.7777   28.8766 C   0  0  0  0  0  0  0  0  0  0  0  0
  -25.8103   -0.8531   30.1028 C   0  0  0  0  0  0  0  0  0  0  0  0
  -27.9906   -0.8916   31.2257 C   0  0  0  0  0  0  0  0  0  0  0  0
  -26.6042   -0.8676   31.2652 C   0  0  0  0  0  0  0  0  0  0  0  0
  -30.4265   -0.7535   29.6347 Br  0  0  0  0  0  0  0  0  0  0  0  0
  -24.3620   -0.8380   30.1522 C   0  0  0  0  0  0  0  0  0  0  0  0
  -23.6817   -1.2676   30.8293 C   0  0  0  0  0  0  0  0  0  0  0  0
  -22.1941   -1.1435   30.9148 C   0  0  0  0  0  0  0  0  0  0  0  0
  -21.6718   -0.4948   29.8206 C   0  0  0  0  0  0  0  0  0  0  0  0
  -23.6801   -0.1292   29.0261 C   0  0  0  0  0  0  0  0  0  0  0  0
  -22.4125    0.0623   28.9167 C   0  0  0  0  0  0  0  0  0  0  0  0
  -21.7507    0.9238   27.5901 Cl  0  0  0  0  0  0  0  0  0  0  0  0
  -25.8410   -0.7402   27.7586 O   0  0  0  0  0  0  0  0  0  0  0  0
  -26.2654   -0.0074   26.6522 C   0  0  0  0  0  0  0  0  0  0  0  0
  -26.8944    1.0832   26.7603 C   0  0  0  0  0  0  0  0  0  0  0  0
  -25.8164   -0.4950   25.3868 C   0  0  0  0  0  0  0  0  0  0  0  0
  -27.0596    1.8177   26.0650 C   0  0  0  0  0  0  0  0  0  0  0  0
  -26.0183    0.3381   24.3087 C   0  0  0  0  0  0  0  0  0  0  0  0
  -26.7589    1.5112   24.6071 C   0  0  0  0  0  0  0  0  0  0  0  0
  -27.8528    3.0165   26.0890 F   0  0  0  0  0  0  0  0  0  0  0  0
  -29.0655   -0.9854   32.7305 Br  0  0  0  0  0  0  0  0  0  0  0  0
  2  7  1  0
  4  8  1  0
 13 14  1  0
  3 15  1  0
 15 16  1  0
 19 22  1  0
  5 23  1  0
  1  2  2  0
  2  5  1  0
  5  6  2  0
  6  4  1  0
  4  3  2  0
  3  1  1  0
 16 17  2  0
 17 19  1  0
 19 21  2  0
 21 20  1  0
 20 18  2  0
 18 16  1  0
  8  9  2  0
  9 10  1  0
 10 11  2  0
 11 13  1  0
 13 12  2  0
 12  8  1  0
M  END

$$$$
