No_4059-gen_results/8p0m/2024-11-27-11-27-31/
     RDKit          3D

 14 14  0  0  0  0  0  0  0  0999 V2000
  -28.0162   -0.8135   28.8779 C   0  0  0  0  0  0  0  0  0  0  0  0
  -27.0636   -0.1189   28.6079 C   0  0  0  0  0  0  0  0  0  0  0  0
  -25.7647   -0.3897   29.0360 C   0  0  0  0  0  0  0  0  0  0  0  0
  -24.5516    0.4058   28.7646 C   0  0  0  0  0  0  0  0  0  0  0  0
  -24.6957    1.4480   27.7988 C   0  0  0  0  0  0  0  0  0  0  0  0
  -25.9755    1.7250   27.3077 C   0  0  0  0  0  0  0  0  0  0  0  0
  -27.0718    1.0134   27.6535 C   0  0  0  0  0  0  0  0  0  0  0  0
  -27.8896   -1.7391   29.9357 N   0  0  0  0  0  0  0  0  0  0  0  0
  -23.4994    2.1783   27.4786 C   0  0  0  0  0  0  0  0  0  0  0  0
  -22.4932    2.6333   28.5897 Cl  0  0  0  0  0  0  0  0  0  0  0  0
  -28.9652   -2.4134   30.4636 C   0  0  0  0  0  0  0  0  0  0  0  0
  -22.6699    1.5827   26.2517 C   0  0  0  0  0  0  0  0  0  0  0  0
  -28.6921   -3.6183   31.2157 C   0  0  0  0  0  0  0  0  0  0  0  0
  -28.1534   -4.5334   30.2824 N   0  0  0  0  0  0  0  0  0  0  0  0
  1  8  1  0
  5  9  1  0
  9 10  1  0
  8 11  1  0
  9 12  1  0
 11 13  1  0
 13 14  1  0
  1  2  1  0
  2  3  2  0
  3  4  1  0
  4  5  2  0
  5  6  1  0
  6  7  2  0
  7  2  1  0
M  END

$$$$
