No_4329-gen_results/8p0m/2024-11-27-11-27-31/
     RDKit          3D

  8  7  0  0  0  0  0  0  0  0999 V2000
  -28.0727   -1.2542   28.5316 F   0  0  0  0  0  0  0  0  0  0  0  0
  -27.0607   -0.6291   28.8721 C   0  0  0  0  0  0  0  0  0  0  0  0
  -26.1267   -1.0777   29.2000 F   0  0  0  0  0  0  0  0  0  0  0  0
  -26.8088    0.4463   27.7631 C   0  0  0  0  0  0  0  0  0  0  0  0
  -27.3916    0.2232   26.8479 F   0  0  0  0  0  0  0  0  0  0  0  0
  -27.2555    1.7147   28.3323 F   0  0  0  0  0  0  0  0  0  0  0  0
  -25.4983    0.5400   27.6597 F   0  0  0  0  0  0  0  0  0  0  0  0
  -27.4640    0.0293   30.0581 F   0  0  0  0  0  0  0  0  0  0  0  0
  1  2  1  0
  2  3  1  0
  2  4  1  0
  4  5  1  0
  4  6  1  0
  4  7  1  0
  2  8  1  0
M  END

$$$$
