No_4127-gen_results/8p0m/2024-11-27-11-27-31/
     RDKit          3D

 16 16  0  0  0  0  0  0  0  0999 V2000
  -28.0162   -0.8135   28.8779 C   0  0  0  0  0  0  0  0  0  0  0  0
  -27.0636   -0.1189   28.6079 C   0  0  0  0  0  0  0  0  0  0  0  0
  -27.0010    0.6913   27.4910 C   0  0  0  0  0  0  0  0  0  0  0  0
  -28.1373    0.7363   26.6350 C   0  0  0  0  0  0  0  0  0  0  0  0
  -29.2360    0.0765   27.0690 C   0  0  0  0  0  0  0  0  0  0  0  0
  -29.2177   -0.6429   28.1747 C   0  0  0  0  0  0  0  0  0  0  0  0
  -30.4152    0.1590   26.1820 C   0  0  0  0  0  0  0  0  0  0  0  0
  -30.3473    0.0802   24.9534 N   0  0  0  0  0  0  0  0  0  0  0  0
  -31.4887   -0.2837   26.7473 O   0  0  0  0  0  0  0  0  0  0  0  0
  -25.7061   -0.1963   29.4237 C   0  0  0  0  0  0  0  0  0  0  0  0
  -24.1091   -0.5099   29.1562 Br  0  0  0  0  0  0  0  0  0  0  0  0
  -25.9291    0.0454   30.9432 C   0  0  0  0  0  0  0  0  0  0  0  0
  -24.9767    0.1058   31.6517 C   0  0  0  0  0  0  0  0  0  0  0  0
  -25.2184    0.4624   33.0637 C   0  0  0  0  0  0  0  0  0  0  0  0
  -26.5592    0.6014   33.5186 C   0  0  0  0  0  0  0  0  0  0  0  0
  -27.5693    0.4508   32.5926 C   0  0  0  0  0  0  0  0  0  0  0  0
  5  7  1  0
  7  8  1  0
  7  9  2  0
  2 10  1  0
 10 11  1  0
 10 12  1  0
 12 13  2  3
 13 14  1  0
 14 15  2  3
 15 16  1  0
  1  2  2  0
  2  3  1  0
  3  4  2  0
  4  5  1  0
  5  6  2  0
  6  1  1  0
M  END

$$$$
