No_4782-gen_results/8p0m/2024-11-27-11-27-31/
     RDKit          3D

 12 12  0  0  0  0  0  0  0  0999 V2000
  -27.9505   -0.5786   29.0402 P   0  0  0  0  0  0  0  0  0  0  0  0
  -27.2401    0.0613   28.4283 O   0  0  0  0  0  0  0  0  0  0  0  0
  -27.2444   -1.9817   29.3768 O   0  0  0  0  0  0  0  0  0  0  0  0
  -28.1880   -0.0139   30.5262 O   0  0  0  0  0  0  0  0  0  0  0  0
  -29.3990   -0.9232   28.6479 O   0  0  0  0  0  0  0  0  0  0  0  0
  -27.0843    0.4867   27.2882 C   0  0  0  0  0  0  0  0  0  0  0  0
  -25.7616    0.7362   26.8328 C   0  0  0  0  0  0  0  0  0  0  0  0
  -25.5197    1.5170   25.7651 C   0  0  0  0  0  0  0  0  0  0  0  0
  -24.6724   -0.0065   27.4319 C   0  0  0  0  0  0  0  0  0  0  0  0
  -24.0936    1.6482   25.4039 C   0  0  0  0  0  0  0  0  0  0  0  0
  -23.3241    0.3951   27.2866 C   0  0  0  0  0  0  0  0  0  0  0  0
  -23.0464    1.2908   26.2454 C   0  0  0  0  0  0  0  0  0  0  0  0
  1  2  1  0
  1  3  2  0
  1  4  1  0
  1  5  1  0
  2  6  1  0
  6  7  1  0
  7  8  2  0
  8 10  1  0
 10 12  2  0
 12 11  1  0
 11  9  2  0
  9  7  1  0
M  END

$$$$
