No_4562-gen_results/8p0m/2024-11-27-11-27-31/
     RDKit          3D

 31 34  0  0  0  0  0  0  0  0999 V2000
  -28.0162   -0.8135   28.8779 C   0  0  0  0  0  0  0  0  0  0  0  0
  -28.4690   -0.7850   29.8287 C   0  0  0  0  0  0  0  0  0  0  0  0
  -28.1960    0.3478   28.0550 C   0  0  0  0  0  0  0  0  0  0  0  0
  -29.0191    1.3501   28.3782 C   0  0  0  0  0  0  0  0  0  0  0  0
  -29.1993    2.4568   27.5396 C   0  0  0  0  0  0  0  0  0  0  0  0
  -29.3831    0.1511   30.4352 C   0  0  0  0  0  0  0  0  0  0  0  0
  -29.6005    1.2796   29.6234 C   0  0  0  0  0  0  0  0  0  0  0  0
  -28.9183    3.6276   27.9282 C   0  0  0  0  0  0  0  0  0  0  0  0
  -29.6786    2.2527   26.1906 C   0  0  0  0  0  0  0  0  0  0  0  0
  -29.0542    4.8424   27.1103 C   0  0  0  0  0  0  0  0  0  0  0  0
  -29.5949    4.6912   25.8222 C   0  0  0  0  0  0  0  0  0  0  0  0
  -29.8537    3.4044   25.3456 C   0  0  0  0  0  0  0  0  0  0  0  0
  -27.4644    0.3187   26.6966 C   0  0  0  0  0  0  0  0  0  0  0  0
  -26.0232    0.2668   26.7451 C   0  0  0  0  0  0  0  0  0  0  0  0
  -25.3583    0.1962   27.9560 C   0  0  0  0  0  0  0  0  0  0  0  0
  -23.9302    0.1027   27.9227 C   0  0  0  0  0  0  0  0  0  0  0  0
  -23.1345    0.8342   28.6716 C   0  0  0  0  0  0  0  0  0  0  0  0
  -23.6330    1.3611   29.9334 C   0  0  0  0  0  0  0  0  0  0  0  0
  -25.0219    1.4704   30.0839 C   0  0  0  0  0  0  0  0  0  0  0  0
  -25.8729    0.9884   29.0300 C   0  0  0  0  0  0  0  0  0  0  0  0
  -25.5807    2.2231   31.2317 C   0  0  0  0  0  0  0  0  0  0  0  0
  -26.8763    2.2483   31.4083 N   0  0  0  0  0  0  0  0  0  0  0  0
  -27.4089    2.7989   32.4802 C   0  0  0  0  0  0  0  0  0  0  0  0
  -24.8213    2.4770   32.2386 O   0  0  0  0  0  0  0  0  0  0  0  0
  -27.7411    2.0058   33.4528 C   0  0  0  0  0  0  0  0  0  0  0  0
  -27.8507    0.7845   33.4978 C   0  0  0  0  0  0  0  0  0  0  0  0
  -27.9135    0.0610   34.1927 C   0  0  0  0  0  0  0  0  0  0  0  0
  -27.9986    0.4555   35.6403 C   0  0  0  0  0  0  0  0  0  0  0  0
  -27.9366    1.7971   35.8851 C   0  0  0  0  0  0  0  0  0  0  0  0
  -27.7537    2.6276   34.8535 C   0  0  0  0  0  0  0  0  0  0  0  0
  -27.8211    4.1047   32.3226 N   0  0  0  0  0  0  0  0  0  0  0  0
  4  5  1  0
  3 13  1  0
 13 14  1  0
 19 21  1  0
 21 22  1  0
 22 23  1  0
 21 24  2  0
 23 31  1  0
 23 25  1  0
 14 15  1  0
 15 16  2  0
 16 17  1  0
 17 18  2  0
 18 19  1  0
 19 20  2  0
 20 15  1  0
  1  2  2  0
  2  6  1  0
  6  7  2  0
  7  4  1  0
  4  3  2  0
  3  1  1  0
  5  8  2  0
  8 10  1  0
 10 11  2  0
 11 12  1  0
 12  9  2  0
  9  5  1  0
 25 26  2  0
 26 27  1  0
 27 28  2  0
 28 29  1  0
 29 30  2  0
 30 25  1  0
M  END

$$$$
