No_452-gen_results/8p0m/2024-11-27-11-27-31/
     RDKit          3D

 31 34  0  0  0  0  0  0  0  0999 V2000
  -28.0162   -0.8135   28.8779 C   0  0  0  0  0  0  0  0  0  0  0  0
  -27.0636   -0.1190   28.6079 C   0  0  0  0  0  0  0  0  0  0  0  0
  -27.0010    0.6913   27.4910 C   0  0  0  0  0  0  0  0  0  0  0  0
  -28.1373    0.7363   26.6350 C   0  0  0  0  0  0  0  0  0  0  0  0
  -29.2360    0.0765   27.0690 C   0  0  0  0  0  0  0  0  0  0  0  0
  -29.2177   -0.6429   28.1747 C   0  0  0  0  0  0  0  0  0  0  0  0
  -30.5230    0.0808   26.3695 C   0  0  0  0  0  0  0  0  0  0  0  0
  -31.5257   -0.5092   26.8653 C   0  0  0  0  0  0  0  0  0  0  0  0
  -31.4431   -1.2187   28.0906 C   0  0  0  0  0  0  0  0  0  0  0  0
  -30.3267   -1.3002   28.7343 C   0  0  0  0  0  0  0  0  0  0  0  0
  -25.7092    1.3899   27.0489 C   0  0  0  0  0  0  0  0  0  0  0  0
  -25.2790    2.4733   27.8464 C   0  0  0  0  0  0  0  0  0  0  0  0
  -25.4514    2.8276   28.8031 C   0  0  0  0  0  0  0  0  0  0  0  0
  -25.7501    2.0401   29.8603 C   0  0  0  0  0  0  0  0  0  0  0  0
  -24.7354    1.6661   30.4918 C   0  0  0  0  0  0  0  0  0  0  0  0
  -24.9649    0.8065   31.6652 C   0  0  0  0  0  0  0  0  0  0  0  0
  -23.9530    0.0464   32.2280 C   0  0  0  0  0  0  0  0  0  0  0  0
  -26.2201    1.0159   32.3238 C   0  0  0  0  0  0  0  0  0  0  0  0
  -27.2745    1.6042   31.6234 C   0  0  0  0  0  0  0  0  0  0  0  0
  -26.9336    2.4630   30.7836 C   0  0  0  0  0  0  0  0  0  0  0  0
  -25.1872    0.8172   25.8554 C   0  0  0  0  0  0  0  0  0  0  0  0
  -24.2991    3.1128   26.8126 C   0  0  0  0  0  0  0  0  0  0  0  0
  -23.5750    2.6958   25.9949 F   0  0  0  0  0  0  0  0  0  0  0  0
  -24.3649    4.5527   26.8509 F   0  0  0  0  0  0  0  0  0  0  0  0
  -23.8032   -1.2255   31.5670 C   0  0  0  0  0  0  0  0  0  0  0  0
  -24.7683   -1.8460   30.9233 C   0  0  0  0  0  0  0  0  0  0  0  0
  -24.4075   -2.7167   29.8078 C   0  0  0  0  0  0  0  0  0  0  0  0
  -25.4177   -3.5006   29.2165 C   0  0  0  0  0  0  0  0  0  0  0  0
  -26.5655   -3.7492   29.9576 C   0  0  0  0  0  0  0  0  0  0  0  0
  -27.0013   -2.8730   30.9321 C   0  0  0  0  0  0  0  0  0  0  0  0
  -26.0417   -2.0312   31.5485 C   0  0  0  0  0  0  0  0  0  0  0  0
  3 11  1  0
 11 12  1  0
 12 13  2  3
 13 14  1  0
 16 17  1  0
 11 21  1  0
 12 22  1  0
 22 23  1  0
 22 24  1  0
 17 25  1  0
 25 26  1  0
 14 15  2  0
 15 16  1  0
 16 18  2  0
 18 19  1  0
 19 20  2  0
 20 14  1  0
  1  2  2  0
  2  3  1  0
  3  4  2  0
  4  5  1  0
  6  1  1  0
  5  6  2  0
  6 10  1  0
 10  9  2  0
  9  8  1  0
  8  7  2  0
  7  5  1  0
 26 27  2  0
 27 28  1  0
 28 29  2  0
 29 30  1  0
 30 31  2  0
 31 26  1  0
M  END

$$$$
