No_43-gen_results/8p0m/2024-11-27-11-27-31/
     RDKit          3D

 28 30  0  0  0  0  0  0  0  0999 V2000
  -28.0162   -0.8135   28.8779 C   0  0  0  0  0  0  0  0  0  0  0  0
  -28.4690   -0.7850   29.8287 C   0  0  0  0  0  0  0  0  0  0  0  0
  -28.1960    0.3478   28.0550 C   0  0  0  0  0  0  0  0  0  0  0  0
  -27.4421    0.5100   26.7946 C   0  0  0  0  0  0  0  0  0  0  0  0
  -26.1689   -0.0794   26.6787 C   0  0  0  0  0  0  0  0  0  0  0  0
  -25.7312   -0.9607   27.6875 C   0  0  0  0  0  0  0  0  0  0  0  0
  -24.3594   -1.3766   27.7515 C   0  0  0  0  0  0  0  0  0  0  0  0
  -26.6133   -1.1911   28.8226 C   0  0  0  0  0  0  0  0  0  0  0  0
  -23.9410   -2.1741   28.8449 C   0  0  0  0  0  0  0  0  0  0  0  0
  -26.0213   -2.0843   29.8067 C   0  0  0  0  0  0  0  0  0  0  0  0
  -24.7538   -2.5297   29.8670 C   0  0  0  0  0  0  0  0  0  0  0  0
  -29.7202   -0.0738   30.4403 P   0  0  0  0  0  0  0  0  0  0  0  0
  -30.2497   -0.5232   31.6836 O   0  0  0  0  0  0  0  0  0  0  0  0
  -30.8356    0.1841   29.4110 O   0  0  0  0  0  0  0  0  0  0  0  0
  -29.4117    1.4205   30.9769 O   0  0  0  0  0  0  0  0  0  0  0  0
  -27.3303    1.9246   26.2916 C   0  0  0  0  0  0  0  0  0  0  0  0
  -25.5880   -0.1209   25.4216 C   0  0  0  0  0  0  0  0  0  0  0  0
  -30.5343   -2.0132   32.0390 Cl  0  0  0  0  0  0  0  0  0  0  0  0
  -28.3672   -0.1500   25.6455 C   0  0  0  0  0  0  0  0  0  0  0  0
  -29.7083    0.2449   25.6199 C   0  0  0  0  0  0  0  0  0  0  0  0
  -30.1135    0.5126   24.4267 C   0  0  0  0  0  0  0  0  0  0  0  0
  -30.4695   -0.8463   26.2099 O   0  0  0  0  0  0  0  0  0  0  0  0
  -31.7088   -0.7269   26.5280 C   0  0  0  0  0  0  0  0  0  0  0  0
  -32.1718   -1.4826   27.3952 C   0  0  0  0  0  0  0  0  0  0  0  0
  -33.4714   -1.2193   27.9859 C   0  0  0  0  0  0  0  0  0  0  0  0
  -34.0907   -0.1765   27.4216 C   0  0  0  0  0  0  0  0  0  0  0  0
  -33.5974    0.6756   26.4824 C   0  0  0  0  0  0  0  0  0  0  0  0
  -32.1656    0.6675   26.3669 C   0  0  0  0  0  0  0  0  0  0  0  0
  1  2  2  3
  1  3  1  0
  3  4  1  0
  4  5  1  0
  5  6  1  0
  1  8  1  0
  2 12  1  0
 12 13  1  0
 12 14  2  0
 12 15  1  0
  4 16  1  0
  5 17  1  0
 13 18  1  0
  4 19  1  0
 19 20  1  0
 20 21  1  0
 20 22  1  0
 22 23  1  0
  6  7  2  0
  7  9  1  0
  9 11  2  0
 11 10  1  0
 10  8  2  0
  8  6  1  0
 23 24  2  0
 24 25  1  0
 25 26  2  0
 26 27  1  0
 27 28  2  0
 28 23  1  0
M  END

$$$$
