No_4128-gen_results/8p0m/2024-11-27-11-27-31/
     RDKit          3D

 25 26  0  0  0  0  0  0  0  0999 V2000
  -28.0162   -0.8135   28.8779 C   0  0  0  0  0  0  0  0  0  0  0  0
  -27.0636   -0.1190   28.6079 C   0  0  0  0  0  0  0  0  0  0  0  0
  -26.9716    0.7139   27.5060 C   0  0  0  0  0  0  0  0  0  0  0  0
  -25.8205    1.4909   27.1160 C   0  0  0  0  0  0  0  0  0  0  0  0
  -24.6562    1.4242   27.9180 C   0  0  0  0  0  0  0  0  0  0  0  0
  -24.7114    0.5419   29.0507 C   0  0  0  0  0  0  0  0  0  0  0  0
  -25.8042   -0.2058   29.3881 C   0  0  0  0  0  0  0  0  0  0  0  0
  -28.7426   -0.4419   30.1405 C   0  0  0  0  0  0  0  0  0  0  0  0
  -28.7850    0.5987   30.5334 F   0  0  0  0  0  0  0  0  0  0  0  0
  -30.0566   -1.0748   30.1442 F   0  0  0  0  0  0  0  0  0  0  0  0
  -28.1607   -1.3424   31.1601 F   0  0  0  0  0  0  0  0  0  0  0  0
  -23.4816    2.2198   27.6423 C   0  0  0  0  0  0  0  0  0  0  0  0
  -23.6541    3.2977   27.0947 F   0  0  0  0  0  0  0  0  0  0  0  0
  -22.4951    1.5627   26.9242 F   0  0  0  0  0  0  0  0  0  0  0  0
  -22.8234    2.5228   28.8019 F   0  0  0  0  0  0  0  0  0  0  0  0
  -28.1321    0.8733   26.6032 C   0  0  0  0  0  0  0  0  0  0  0  0
  -29.1775    1.3404   26.9156 O   0  0  0  0  0  0  0  0  0  0  0  0
  -27.9152    0.7440   25.3514 O   0  0  0  0  0  0  0  0  0  0  0  0
  -28.9141    0.3673   24.5059 C   0  0  0  0  0  0  0  0  0  0  0  0
  -29.1435   -1.0162   24.4466 C   0  0  0  0  0  0  0  0  0  0  0  0
  -30.3553   -1.4695   23.7473 C   0  0  0  0  0  0  0  0  0  0  0  0
  -31.5088   -0.8359   24.2775 C   0  0  0  0  0  0  0  0  0  0  0  0
  -31.3990    0.6346   24.2393 C   0  0  0  0  0  0  0  0  0  0  0  0
  -30.1776    1.0817   24.9991 C   0  0  0  0  0  0  0  0  0  0  0  0
  -30.0780    2.2919   25.3789 C   0  0  0  0  0  0  0  0  0  0  0  0
  1  8  1  0
  8  9  1  0
  8 10  1  0
  8 11  1  0
  5 12  1  0
 12 13  1  0
 12 14  1  0
 12 15  1  0
  3 16  1  0
 16 17  2  0
 16 18  1  0
 18 19  1  0
 24 25  1  0
  1  2  1  0
  2  3  2  0
  3  4  1  0
  4  5  2  0
  5  6  1  0
  6  7  2  0
  7  2  1  0
 19 20  2  0
 20 21  1  0
 21 22  2  0
 22 23  1  0
 23 24  2  0
 24 19  1  0
M  END

$$$$
