No_4381-gen_results/8p0m/2024-11-27-11-27-31/
     RDKit          3D

 20 22  0  0  0  0  0  0  0  0999 V2000
  -28.0162   -0.8135   28.8779 C   0  0  0  0  0  0  0  0  0  0  0  0
  -28.4690   -0.7850   29.8287 C   0  0  0  0  0  0  0  0  0  0  0  0
  -26.5042   -0.7777   28.8766 C   0  0  0  0  0  0  0  0  0  0  0  0
  -25.8103   -0.8531   30.1028 C   0  0  0  0  0  0  0  0  0  0  0  0
  -27.9906   -0.8916   31.2257 C   0  0  0  0  0  0  0  0  0  0  0  0
  -26.6042   -0.8676   31.2652 C   0  0  0  0  0  0  0  0  0  0  0  0
  -30.0739   -0.8360   29.8615 C   0  0  0  0  0  0  0  0  0  0  0  0
  -30.5608   -0.4417   28.9417 O   0  0  0  0  0  0  0  0  0  0  0  0
  -30.7486   -1.4028   30.9473 N   0  0  0  0  0  0  0  0  0  0  0  0
  -30.3147   -1.9473   32.0849 C   0  0  0  0  0  0  0  0  0  0  0  0
  -32.2371   -1.3585   30.7532 C   0  0  0  0  0  0  0  0  0  0  0  0
  -25.5261   -0.6390   27.4792 Cl  0  0  0  0  0  0  0  0  0  0  0  0
  -32.8033   -2.4291   30.9872 C   0  0  0  0  0  0  0  0  0  0  0  0
  -31.1164   -3.1523   32.5448 C   0  0  0  0  0  0  0  0  0  0  0  0
  -30.5839   -3.9338   33.6421 C   0  0  0  0  0  0  0  0  0  0  0  0
  -32.3556   -3.2612   32.0335 C   0  0  0  0  0  0  0  0  0  0  0  0
  -29.8410   -3.2501   34.5675 C   0  0  0  0  0  0  0  0  0  0  0  0
  -29.3430   -1.9697   34.3335 C   0  0  0  0  0  0  0  0  0  0  0  0
  -29.4235   -1.4341   33.0771 C   0  0  0  0  0  0  0  0  0  0  0  0
  -29.1442    0.0179   32.9780 C   0  0  0  0  0  0  0  0  0  0  0  0
  2  7  1  0
  7  8  2  0
  7  9  1  0
  9 10  1  0
  9 11  1  0
  3 12  1  0
 13 16  1  0
 14 16  1  0
 19 20  1  0
 13 11  1  0
 10 14  2  0
 14 15  1  0
 15 17  2  0
 17 18  1  0
 18 19  2  0
 19 10  1  0
  1  2  2  0
  2  5  1  0
  5  6  2  0
  6  4  1  0
  4  3  2  0
  3  1  1  0
M  END

$$$$
