No_4285-gen_results/8p0m/2024-11-27-11-27-31/
     RDKit          3D

 15 16  0  0  0  0  0  0  0  0999 V2000
  -28.0162   -0.8135   28.8779 C   0  0  0  0  0  0  0  0  0  0  0  0
  -27.0636   -0.1190   28.6079 C   0  0  0  0  0  0  0  0  0  0  0  0
  -25.7647   -0.3897   29.0360 C   0  0  0  0  0  0  0  0  0  0  0  0
  -25.5296   -1.5302   29.9014 C   0  0  0  0  0  0  0  0  0  0  0  0
  -26.6888   -2.2893   30.1810 C   0  0  0  0  0  0  0  0  0  0  0  0
  -27.8727   -1.9508   29.7373 C   0  0  0  0  0  0  0  0  0  0  0  0
  -29.0901   -2.6445   30.1599 C   0  0  0  0  0  0  0  0  0  0  0  0
  -29.2889   -2.7260   31.4202 O   0  0  0  0  0  0  0  0  0  0  0  0
  -24.5122    0.3910   28.6952 C   0  0  0  0  0  0  0  0  0  0  0  0
  -24.5082    1.2538   27.6622 C   0  0  0  0  0  0  0  0  0  0  0  0
  -23.2893    1.9314   27.3402 C   0  0  0  0  0  0  0  0  0  0  0  0
  -22.1835    1.5720   28.0108 C   0  0  0  0  0  0  0  0  0  0  0  0
  -23.1824    0.2332   29.2344 C   0  0  0  0  0  0  0  0  0  0  0  0
  -22.0584    0.7685   28.9566 C   0  0  0  0  0  0  0  0  0  0  0  0
  -30.0074   -2.9095   29.4435 O   0  0  0  0  0  0  0  0  0  0  0  0
  6  7  1  0
  7  8  1  0
  3  9  1  0
  7 15  2  0
  1  2  2  0
  2  3  1  0
  3  4  2  0
  4  5  1  0
  5  6  2  0
  6  1  1  0
  9 10  2  0
 10 11  1  0
 11 12  2  0
 12 14  1  0
 14 13  2  0
 13  9  1  0
M  END

$$$$
