No_4388-gen_results/8p0m/2024-11-27-11-27-31/
     RDKit          3D

 13 13  0  0  0  0  0  0  0  0999 V2000
  -28.0162   -0.8135   28.8779 C   0  0  0  0  0  0  0  0  0  0  0  0
  -27.0636   -0.1189   28.6079 C   0  0  0  0  0  0  0  0  0  0  0  0
  -26.9287    1.1713   29.0083 C   0  0  0  0  0  0  0  0  0  0  0  0
  -27.9560    1.7411   29.7840 C   0  0  0  0  0  0  0  0  0  0  0  0
  -29.0569   -0.3271   29.7466 C   0  0  0  0  0  0  0  0  0  0  0  0
  -28.9828    0.9722   30.1516 C   0  0  0  0  0  0  0  0  0  0  0  0
  -25.6542   -0.7325   27.6370 P   0  0  0  0  0  0  0  0  0  0  0  0
  -24.5454    0.1265   27.9688 O   0  0  0  0  0  0  0  0  0  0  0  0
  -25.2765   -2.0436   28.1280 O   0  0  0  0  0  0  0  0  0  0  0  0
  -25.8837   -0.2606   26.2890 O   0  0  0  0  0  0  0  0  0  0  0  0
  -24.0602    1.2424   27.2744 C   0  0  0  0  0  0  0  0  0  0  0  0
  -22.7470    1.6920   27.8072 C   0  0  0  0  0  0  0  0  0  0  0  0
  -22.6262    1.7584   29.0772 O   0  0  0  0  0  0  0  0  0  0  0  0
  2  7  1  0
  7  8  1  0
  7  9  1  0
  7 10  2  0
  8 11  1  0
 11 12  1  0
 12 13  1  0
  1  2  2  0
  2  3  1  0
  3  4  2  0
  4  6  1  0
  6  5  2  0
  5  1  1  0
M  END

$$$$
