No_4730-gen_results/8p0m/2024-11-27-11-27-31/
     RDKit          3D

 10 10  0  0  0  0  0  0  0  0999 V2000
  -28.0727   -1.2542   28.5316 F   0  0  0  0  0  0  0  0  0  0  0  0
  -27.3591   -0.3792   28.7224 C   0  0  0  0  0  0  0  0  0  0  0  0
  -27.7014    0.7608   29.1249 C   0  0  0  0  0  0  0  0  0  0  0  0
  -25.9284   -0.8245   28.8472 C   0  0  0  0  0  0  0  0  0  0  0  0
  -25.4215   -2.0905   28.6642 C   0  0  0  0  0  0  0  0  0  0  0  0
  -26.8322    1.8393   29.1202 C   0  0  0  0  0  0  0  0  0  0  0  0
  -25.3610    1.5490   29.2104 C   0  0  0  0  0  0  0  0  0  0  0  0
  -24.9077    0.2383   29.0556 C   0  0  0  0  0  0  0  0  0  0  0  0
  -24.1049   -2.4389   29.2308 C   0  0  0  0  0  0  0  0  0  0  0  0
  -23.3059   -1.4760   29.4579 C   0  0  0  0  0  0  0  0  0  0  0  0
  1  2  1  0
  4  5  1  0
  5  9  2  3
  9 10  1  0
  2  3  2  0
  3  6  1  0
  6  7  2  0
  7  8  1  0
  8  4  2  0
  4  2  1  0
M  END

$$$$
