No_4601-gen_results/8p0m/2024-11-27-11-27-31/
     RDKit          3D

 35 37  0  0  0  0  0  0  0  0999 V2000
  -28.0162   -0.8135   28.8779 C   0  0  0  0  0  0  0  0  0  0  0  0
  -27.0636   -0.1189   28.6079 C   0  0  0  0  0  0  0  0  0  0  0  0
  -26.8756    1.1325   28.9134 C   0  0  0  0  0  0  0  0  0  0  0  0
  -27.9014    1.8066   29.6436 C   0  0  0  0  0  0  0  0  0  0  0  0
  -29.0458   -0.2316   29.7181 C   0  0  0  0  0  0  0  0  0  0  0  0
  -28.9402    1.0517   30.0597 C   0  0  0  0  0  0  0  0  0  0  0  0
  -26.0208   -0.6774   27.8774 F   0  0  0  0  0  0  0  0  0  0  0  0
  -30.0213    1.6852   30.8724 C   0  0  0  0  0  0  0  0  0  0  0  0
  -29.6464    2.6297   31.6630 C   0  0  0  0  0  0  0  0  0  0  0  0
  -28.4776    3.4772   31.2207 C   0  0  0  0  0  0  0  0  0  0  0  0
  -27.4974    2.9890   30.4086 C   0  0  0  0  0  0  0  0  0  0  0  0
  -26.3048    3.7461   30.1046 C   0  0  0  0  0  0  0  0  0  0  0  0
  -25.3664    3.2916   29.3751 C   0  0  0  0  0  0  0  0  0  0  0  0
  -25.5949    1.9232   28.6698 C   0  0  0  0  0  0  0  0  0  0  0  0
  -30.2678   -1.1118   29.9570 C   0  0  0  0  0  0  0  0  0  0  0  0
  -31.0955   -1.1820   29.1434 O   0  0  0  0  0  0  0  0  0  0  0  0
  -30.3089   -1.7355   31.1044 O   0  0  0  0  0  0  0  0  0  0  0  0
  -26.0691    5.0945   30.6945 C   0  0  0  0  0  0  0  0  0  0  0  0
  -27.0960    5.7438   31.0677 O   0  0  0  0  0  0  0  0  0  0  0  0
  -24.9107    5.5125   30.6330 O   0  0  0  0  0  0  0  0  0  0  0  0
  -31.1834   -2.6872   31.3851 C   0  0  0  0  0  0  0  0  0  0  0  0
  -30.6005   -3.9172   31.9919 C   0  0  0  0  0  0  0  0  0  0  0  0
  -30.2386   -4.7900   31.3179 C   0  0  0  0  0  0  0  0  0  0  0  0
  -30.0010   -4.9148   30.2209 C   0  0  0  0  0  0  0  0  0  0  0  0
  -30.4121   -5.0728   29.1036 C   0  0  0  0  0  0  0  0  0  0  0  0
  -31.7861   -5.0840   29.0388 N   0  0  0  0  0  0  0  0  0  0  0  0
  -32.4783   -5.0840   28.1276 C   0  0  0  0  0  0  0  0  0  0  0  0
  -33.7300   -5.1334   28.1416 O   0  0  0  0  0  0  0  0  0  0  0  0
  -31.8913   -4.5719   26.7460 C   0  0  0  0  0  0  0  0  0  0  0  0
  -32.3560   -3.7979   26.1943 O   0  0  0  0  0  0  0  0  0  0  0  0
  -30.9956   -5.3651   26.3683 O   0  0  0  0  0  0  0  0  0  0  0  0
  -32.5108   -2.5110   31.2750 C   0  0  0  0  0  0  0  0  0  0  0  0
  -33.1618   -2.0693   32.5087 C   0  0  0  0  0  0  0  0  0  0  0  0
  -34.1268   -1.6786   32.7074 C   0  0  0  0  0  0  0  0  0  0  0  0
  -34.7364   -1.3256   34.0164 C   0  0  0  0  0  0  0  0  0  0  0  0
  1  2  2  0
  2  3  1  0
  3  4  2  0
  1  5  1  0
  4  6  1  0
  5  6  2  0
  2  7  1  0
  6  8  1  0
  8  9  2  0
  9 10  1  0
  4 11  1  0
 10 11  2  0
 11 12  1  0
 12 13  2  0
  3 14  1  0
 13 14  1  0
  5 15  1  0
 15 16  2  0
 15 17  1  0
 12 18  1  0
 18 19  1  0
 18 20  2  0
 17 21  1  0
 21 22  1  0
 22 23  1  0
 23 24  2  3
 24 25  1  0
 25 26  1  0
 26 27  1  0
 27 28  2  0
 27 29  1  0
 29 30  2  0
 29 31  1  0
 21 32  1  0
 32 33  1  0
 33 34  2  3
 34 35  1  0
M  END

$$$$
