No_4410-gen_results/8p0m/2024-11-27-11-27-31/
     RDKit          3D

 21 23  0  0  0  0  0  0  0  0999 V2000
  -28.0162   -0.8135   28.8779 C   0  0  0  0  0  0  0  0  0  0  0  0
  -28.4690   -0.7850   29.8287 C   0  0  0  0  0  0  0  0  0  0  0  0
  -26.5455   -0.8762   28.8500 C   0  0  0  0  0  0  0  0  0  0  0  0
  -25.6825   -0.7773   27.6829 C   0  0  0  0  0  0  0  0  0  0  0  0
  -27.9181   -1.0034   31.1877 C   0  0  0  0  0  0  0  0  0  0  0  0
  -26.5308   -1.0794   31.2463 C   0  0  0  0  0  0  0  0  0  0  0  0
  -25.7798   -1.0462   30.0905 C   0  0  0  0  0  0  0  0  0  0  0  0
  -25.8977    0.2387   26.7449 C   0  0  0  0  0  0  0  0  0  0  0  0
  -26.8246    1.1178   26.8570 C   0  0  0  0  0  0  0  0  0  0  0  0
  -26.9997    2.0705   25.8008 C   0  0  0  0  0  0  0  0  0  0  0  0
  -26.1783    1.9290   24.7230 C   0  0  0  0  0  0  0  0  0  0  0  0
  -25.2356    0.9351   24.6922 C   0  0  0  0  0  0  0  0  0  0  0  0
  -25.0303    0.0686   25.6247 C   0  0  0  0  0  0  0  0  0  0  0  0
  -24.3844   -1.1628   30.1382 C   0  0  0  0  0  0  0  0  0  0  0  0
  -23.5983   -0.1621   30.4785 C   0  0  0  0  0  0  0  0  0  0  0  0
  -23.9529    0.9640   31.2104 C   0  0  0  0  0  0  0  0  0  0  0  0
  -23.2851    2.2658   31.1046 C   0  0  0  0  0  0  0  0  0  0  0  0
  -23.9769    3.3572   31.7506 C   0  0  0  0  0  0  0  0  0  0  0  0
  -25.1658    3.1217   32.4999 C   0  0  0  0  0  0  0  0  0  0  0  0
  -25.6921    1.8664   32.6080 C   0  0  0  0  0  0  0  0  0  0  0  0
  -25.1215    0.8977   31.9701 C   0  0  0  0  0  0  0  0  0  0  0  0
  3  4  1  0
  7 14  1  0
 14 15  1  0
 15 16  1  0
  4  8  1  0
  8  9  2  0
  9 10  1  0
 10 11  2  0
 11 12  1  0
 12 13  2  0
 13  8  1  0
  1  2  2  0
  2  5  1  0
  5  6  2  0
  6  7  1  0
  7  3  2  0
  3  1  1  0
 16 17  2  0
 17 18  1  0
 18 19  2  0
 19 20  1  0
 20 21  2  0
 21 16  1  0
M  END

$$$$
