No_4462-gen_results/8p0m/2024-11-27-11-27-31/
     RDKit          3D

 18 20  0  0  0  0  0  0  0  0999 V2000
  -28.0727   -1.2542   28.5316 F   0  0  0  0  0  0  0  0  0  0  0  0
  -27.3591   -0.3792   28.7224 C   0  0  0  0  0  0  0  0  0  0  0  0
  -26.8100    0.1885   27.6513 C   0  0  0  0  0  0  0  0  0  0  0  0
  -27.9478    0.6403   29.4848 F   0  0  0  0  0  0  0  0  0  0  0  0
  -26.5678   -0.6776   29.8323 F   0  0  0  0  0  0  0  0  0  0  0  0
  -27.4102    0.6038   26.5243 C   0  0  0  0  0  0  0  0  0  0  0  0
  -25.2856    0.3276   27.5827 C   0  0  0  0  0  0  0  0  0  0  0  0
  -24.6396    1.0695   26.6027 C   0  0  0  0  0  0  0  0  0  0  0  0
  -26.7759    1.2307   25.4044 C   0  0  0  0  0  0  0  0  0  0  0  0
  -25.3782    1.4997   25.4970 C   0  0  0  0  0  0  0  0  0  0  0  0
  -23.2581    1.3357   26.7888 C   0  0  0  0  0  0  0  0  0  0  0  0
  -22.6807    2.4874   26.3185 C   0  0  0  0  0  0  0  0  0  0  0  0
  -22.5401    0.6372   27.8712 C   0  0  0  0  0  0  0  0  0  0  0  0
  -21.1833    0.9840   28.1440 C   0  0  0  0  0  0  0  0  0  0  0  0
  -20.6221    2.0902   27.5350 C   0  0  0  0  0  0  0  0  0  0  0  0
  -23.3467    3.1754   25.3408 C   0  0  0  0  0  0  0  0  0  0  0  0
  -21.3105    2.7201   26.6365 C   0  0  0  0  0  0  0  0  0  0  0  0
  -24.7185    2.7685   24.9859 C   0  0  0  0  0  0  0  0  0  0  0  0
  1  2  1  0
  2  3  1  0
  2  4  1  0
  2  5  1  0
 10 18  1  0
 18 16  2  0
 16 12  1  0
 11  8  1  0
 11 12  2  0
 12 17  1  0
 17 15  2  0
 15 14  1  0
 14 13  2  0
 13 11  1  0
  3  6  2  0
  6  9  1  0
  9 10  2  0
 10  8  1  0
  8  7  2  0
  7  3  1  0
M  END

$$$$
