No_4332-gen_results/8p0m/2024-11-27-11-27-31/
     RDKit          3D

 19 20  0  0  0  0  0  0  0  0999 V2000
  -28.0162   -0.8135   28.8779 C   0  0  0  0  0  0  0  0  0  0  0  0
  -27.0636   -0.1189   28.6079 C   0  0  0  0  0  0  0  0  0  0  0  0
  -27.0010    0.6913   27.4910 C   0  0  0  0  0  0  0  0  0  0  0  0
  -25.8548    1.4825   27.0830 C   0  0  0  0  0  0  0  0  0  0  0  0
  -24.6901    1.4526   27.8807 C   0  0  0  0  0  0  0  0  0  0  0  0
  -24.7379    0.6010   29.0416 C   0  0  0  0  0  0  0  0  0  0  0  0
  -25.8234   -0.1688   29.3887 C   0  0  0  0  0  0  0  0  0  0  0  0
  -29.2455   -0.0678   29.1937 C   0  0  0  0  0  0  0  0  0  0  0  0
  -29.7396    0.6565   28.5329 N   0  0  0  0  0  0  0  0  0  0  0  0
  -29.9182   -0.5659   30.3547 N   0  0  0  0  0  0  0  0  0  0  0  0
  -30.9930    1.2909   28.7199 C   0  0  0  0  0  0  0  0  0  0  0  0
  -31.1320   -0.0090   30.6669 C   0  0  0  0  0  0  0  0  0  0  0  0
  -31.6610    0.9257   29.8720 C   0  0  0  0  0  0  0  0  0  0  0  0
  -23.5102    2.1676   27.5569 C   0  0  0  0  0  0  0  0  0  0  0  0
  -22.6653    2.4121   28.4661 N   0  0  0  0  0  0  0  0  0  0  0  0
  -23.3159    2.5288   26.3292 O   0  0  0  0  0  0  0  0  0  0  0  0
  -31.4303    2.2497   27.8819 N   0  0  0  0  0  0  0  0  0  0  0  0
  -32.5827    2.5783   27.6410 C   0  0  0  0  0  0  0  0  0  0  0  0
  -32.7915    3.6496   26.7380 C   0  0  0  0  0  0  0  0  0  0  0  0
  1  2  1  0
  1  8  1  0
  5 14  1  0
 14 15  1  0
 14 16  2  0
 11 17  1  0
 17 18  2  3
 18 19  1  0
  8  9  2  0
  9 11  1  0
 11 13  2  0
 13 12  1  0
 12 10  2  0
 10  8  1  0
  2  3  2  0
  3  4  1  0
  4  5  2  0
  5  6  1  0
  6  7  2  0
  7  2  1  0
M  END

$$$$
