No_4196-gen_results/8p0m/2024-11-27-11-27-31/
     RDKit          3D

 23 25  0  0  0  0  0  0  0  0999 V2000
  -28.0162   -0.8135   28.8779 C   0  0  0  0  0  0  0  0  0  0  0  0
  -27.0636   -0.1189   28.6079 C   0  0  0  0  0  0  0  0  0  0  0  0
  -25.7923   -0.4302   29.0761 C   0  0  0  0  0  0  0  0  0  0  0  0
  -24.5456    0.3494   28.8225 C   0  0  0  0  0  0  0  0  0  0  0  0
  -24.6586    1.4196   27.8878 C   0  0  0  0  0  0  0  0  0  0  0  0
  -25.9471    1.6811   27.3792 C   0  0  0  0  0  0  0  0  0  0  0  0
  -27.0439    0.9739   27.6871 C   0  0  0  0  0  0  0  0  0  0  0  0
  -27.9170   -2.0334   29.1421 F   0  0  0  0  0  0  0  0  0  0  0  0
  -28.7668   -0.2439   29.9278 F   0  0  0  0  0  0  0  0  0  0  0  0
  -23.4055    2.4903   27.6218 Cl  0  0  0  0  0  0  0  0  0  0  0  0
  -23.2346    0.0107   29.4086 C   0  0  0  0  0  0  0  0  0  0  0  0
  -23.1853   -1.0360   30.0270 C   0  0  0  0  0  0  0  0  0  0  0  0
  -24.2612   -1.8021   30.4575 C   0  0  0  0  0  0  0  0  0  0  0  0
  -25.5590   -1.5563   29.9258 C   0  0  0  0  0  0  0  0  0  0  0  0
  -28.3242    1.3038   26.9908 C   0  0  0  0  0  0  0  0  0  0  0  0
  -28.2638    1.4378   25.6350 C   0  0  0  0  0  0  0  0  0  0  0  0
  -29.4255    1.6306   24.8950 C   0  0  0  0  0  0  0  0  0  0  0  0
  -30.4570    1.0082   25.0588 C   0  0  0  0  0  0  0  0  0  0  0  0
  -31.5959    1.2645   24.3765 C   0  0  0  0  0  0  0  0  0  0  0  0
  -31.5344    2.2744   23.3340 C   0  0  0  0  0  0  0  0  0  0  0  0
  -30.3581    2.9238   23.0764 C   0  0  0  0  0  0  0  0  0  0  0  0
  -29.2357    2.6526   23.8878 C   0  0  0  0  0  0  0  0  0  0  0  0
  -27.4230    0.2608   24.9918 C   0  0  0  0  0  0  0  0  0  0  0  0
  1  2  1  0
  1  8  1  0
  1  9  1  0
  5 10  1  0
  7 15  1  0
 15 16  2  3
 16 17  1  0
 16 23  1  0
 17 18  2  0
 18 19  1  0
 19 20  2  0
 20 21  1  0
 21 22  2  0
 22 17  1  0
  2  3  2  0
  4  5  2  0
  5  6  1  0
  6  7  2  0
  7  2  1  0
  3  4  1  0
  4 11  1  0
 11 12  2  0
 12 13  1  0
 13 14  2  0
 14  3  1  0
M  END

$$$$
