No_4962-gen_results/8p0m/2024-11-27-11-27-31/
     RDKit          3D

  8  7  0  0  0  0  0  0  0  0999 V2000
  -28.0727   -1.2542   28.5316 F   0  0  0  0  0  0  0  0  0  0  0  0
  -27.3591   -0.3792   28.7224 C   0  0  0  0  0  0  0  0  0  0  0  0
  -26.3180   -0.6608   29.1159 F   0  0  0  0  0  0  0  0  0  0  0  0
  -27.9301    0.6892   29.6024 C   0  0  0  0  0  0  0  0  0  0  0  0
  -27.1905    0.2246   27.4533 F   0  0  0  0  0  0  0  0  0  0  0  0
  -27.4628    1.7519   29.3703 F   0  0  0  0  0  0  0  0  0  0  0  0
  -27.5861    0.3804   30.8821 F   0  0  0  0  0  0  0  0  0  0  0  0
  -29.2427    0.6592   29.4719 F   0  0  0  0  0  0  0  0  0  0  0  0
  1  2  1  0
  2  3  1  0
  2  4  1  0
  2  5  1  0
  4  6  1  0
  4  7  1  0
  4  8  1  0
M  END

$$$$
