No_4958-gen_results/8p0m/2024-11-27-11-27-31/
     RDKit          3D

 18 19  0  0  0  0  0  0  0  0999 V2000
  -28.0162   -0.8135   28.8779 C   0  0  0  0  0  0  0  0  0  0  0  0
  -28.4690   -0.7850   29.8287 C   0  0  0  0  0  0  0  0  0  0  0  0
  -28.1960    0.3478   28.0550 C   0  0  0  0  0  0  0  0  0  0  0  0
  -29.0191    1.3501   28.3782 C   0  0  0  0  0  0  0  0  0  0  0  0
  -28.3170   -1.9812   30.8560 C   0  0  0  0  0  0  0  0  0  0  0  0
  -29.5950    1.2859   29.6049 C   0  0  0  0  0  0  0  0  0  0  0  0
  -29.3465    0.2093   30.3749 C   0  0  0  0  0  0  0  0  0  0  0  0
  -27.6973   -1.8297   31.7371 O   0  0  0  0  0  0  0  0  0  0  0  0
  -28.8051   -3.1400   30.4048 O   0  0  0  0  0  0  0  0  0  0  0  0
  -27.4409    0.3500   26.6866 C   0  0  0  0  0  0  0  0  0  0  0  0
  -26.3699    1.0499   26.5985 C   0  0  0  0  0  0  0  0  0  0  0  0
  -25.5514    1.0792   25.4633 C   0  0  0  0  0  0  0  0  0  0  0  0
  -24.2933    1.0923   25.6481 C   0  0  0  0  0  0  0  0  0  0  0  0
  -23.5952    1.6996   26.7378 C   0  0  0  0  0  0  0  0  0  0  0  0
  -24.4699    1.8378   27.8585 C   0  0  0  0  0  0  0  0  0  0  0  0
  -25.7463    1.4587   27.8534 C   0  0  0  0  0  0  0  0  0  0  0  0
  -28.1499   -0.0827   25.7271 O   0  0  0  0  0  0  0  0  0  0  0  0
  -22.3919    1.9875   26.7145 F   0  0  0  0  0  0  0  0  0  0  0  0
  2  5  1  0
  5  8  2  0
  5  9  1  0
  3 10  1  0
 10 11  1  0
 10 17  2  0
 14 18  1  0
 11 12  2  0
 12 13  1  0
 13 14  2  0
 14 15  1  0
 15 16  2  0
 16 11  1  0
  1  2  2  0
  2  7  1  0
  7  6  2  0
  6  4  1  0
  4  3  2  0
  3  1  1  0
M  END

$$$$
