No_4645-gen_results/8p0m/2024-11-27-11-27-31/
     RDKit          3D

 15 16  0  0  0  0  0  0  0  0999 V2000
  -28.0162   -0.8135   28.8779 C   0  0  0  0  0  0  0  0  0  0  0  0
  -27.0636   -0.1190   28.6079 C   0  0  0  0  0  0  0  0  0  0  0  0
  -27.0010    0.6913   27.4910 C   0  0  0  0  0  0  0  0  0  0  0  0
  -28.1373    0.7363   26.6350 C   0  0  0  0  0  0  0  0  0  0  0  0
  -29.2360    0.0765   27.0690 C   0  0  0  0  0  0  0  0  0  0  0  0
  -29.2177   -0.6429   28.1747 C   0  0  0  0  0  0  0  0  0  0  0  0
  -28.0030   -1.6604   30.1266 C   0  0  0  0  0  0  0  0  0  0  0  0
  -27.0435   -2.4948   30.2691 N   0  0  0  0  0  0  0  0  0  0  0  0
  -26.3973   -2.9621   29.3026 C   0  0  0  0  0  0  0  0  0  0  0  0
  -25.3662   -4.0142   29.6231 C   0  0  0  0  0  0  0  0  0  0  0  0
  -29.0234   -1.5752   30.9099 O   0  0  0  0  0  0  0  0  0  0  0  0
  -27.8412    1.5885   25.5472 N   0  0  0  0  0  0  0  0  0  0  0  0
  -26.6848    1.9881   25.3136 C   0  0  0  0  0  0  0  0  0  0  0  0
  -25.5748    1.9616   26.0878 C   0  0  0  0  0  0  0  0  0  0  0  0
  -25.6964    1.2850   27.1627 C   0  0  0  0  0  0  0  0  0  0  0  0
  1  7  1  0
  7  8  1  0
  8  9  1  0
  9 10  2  0
  7 11  2  0
  1  2  2  0
  2  3  1  0
  4  5  1  0
  5  6  2  0
  6  1  1  0
  3  4  2  0
  4 12  1  0
 12 13  2  0
 13 14  1  0
 14 15  2  0
 15  3  1  0
M  END

$$$$
