No_4206-gen_results/8p0m/2024-11-27-11-27-31/
     RDKit          3D

 17 18  0  0  0  0  0  0  0  0999 V2000
  -28.0162   -0.8135   28.8779 C   0  0  0  0  0  0  0  0  0  0  0  0
  -28.4690   -0.7850   29.8287 C   0  0  0  0  0  0  0  0  0  0  0  0
  -27.0871    0.2903   28.6377 C   0  0  0  0  0  0  0  0  0  0  0  0
  -26.2516    0.4114   27.4223 C   0  0  0  0  0  0  0  0  0  0  0  0
  -28.3913    0.1041   30.9805 C   0  0  0  0  0  0  0  0  0  0  0  0
  -27.5332    1.1666   30.7866 C   0  0  0  0  0  0  0  0  0  0  0  0
  -26.8281    1.2557   29.6454 C   0  0  0  0  0  0  0  0  0  0  0  0
  -26.0545    1.5503   27.3137 F   0  0  0  0  0  0  0  0  0  0  0  0
  -25.1471   -0.3298   27.5523 F   0  0  0  0  0  0  0  0  0  0  0  0
  -26.9727   -0.0291   26.3313 F   0  0  0  0  0  0  0  0  0  0  0  0
  -29.5220   -2.2580   30.1117 Cl  0  0  0  0  0  0  0  0  0  0  0  0
  -27.3684    2.1999   31.8696 C   0  0  0  0  0  0  0  0  0  0  0  0
  -27.2619    3.3097   31.6763 N   0  0  0  0  0  0  0  0  0  0  0  0
  -26.7539    4.2452   32.4270 C   0  0  0  0  0  0  0  0  0  0  0  0
  -26.5361    3.9582   33.7709 C   0  0  0  0  0  0  0  0  0  0  0  0
  -26.9956    1.6391   33.2032 C   0  0  0  0  0  0  0  0  0  0  0  0
  -26.6088    2.6097   34.1763 C   0  0  0  0  0  0  0  0  0  0  0  0
  3  4  1  0
  4  8  1  0
  4  9  1  0
  4 10  1  0
  2 11  1  0
  6 12  1  0
 12 13  2  0
 13 14  1  0
 14 15  2  0
 15 17  1  0
 17 16  2  0
 16 12  1  0
  1  2  2  0
  2  5  1  0
  5  6  2  0
  6  7  1  0
  7  3  2  0
  3  1  1  0
M  END

$$$$
