No_4594-gen_results/8p0m/2024-11-27-11-27-31/
     RDKit          3D

 22 23  0  0  0  0  0  0  0  0999 V2000
  -28.1229   -1.3353   28.4874 O   0  0  0  0  0  0  0  0  0  0  0  0
  -28.5208   -0.4363   29.0779 C   0  0  0  0  0  0  0  0  0  0  0  0
  -29.6977    0.0507   28.9764 C   0  0  0  0  0  0  0  0  0  0  0  0
  -27.4735    0.3426   29.7907 N   0  0  0  0  0  0  0  0  0  0  0  0
  -27.8125    1.4527   30.5890 C   0  0  0  0  0  0  0  0  0  0  0  0
  -30.4255   -0.4786   28.2125 F   0  0  0  0  0  0  0  0  0  0  0  0
  -30.0990    1.2779   29.6625 C   0  0  0  0  0  0  0  0  0  0  0  0
  -29.4173    1.8606   30.2229 C   0  0  0  0  0  0  0  0  0  0  0  0
  -26.1545   -0.1354   30.0609 C   0  0  0  0  0  0  0  0  0  0  0  0
  -25.3778   -0.0890   28.9180 C   0  0  0  0  0  0  0  0  0  0  0  0
  -24.9867    1.1092   28.4002 C   0  0  0  0  0  0  0  0  0  0  0  0
  -25.2447    2.3127   29.1125 C   0  0  0  0  0  0  0  0  0  0  0  0
  -24.9738    3.4574   28.5580 C   0  0  0  0  0  0  0  0  0  0  0  0
  -24.3263    3.5492   27.2580 C   0  0  0  0  0  0  0  0  0  0  0  0
  -24.0204    2.3714   26.5805 C   0  0  0  0  0  0  0  0  0  0  0  0
  -24.4014    1.1498   27.1141 C   0  0  0  0  0  0  0  0  0  0  0  0
  -24.7870   -1.3134   28.4575 C   0  0  0  0  0  0  0  0  0  0  0  0
  -25.0014   -2.4927   29.2010 C   0  0  0  0  0  0  0  0  0  0  0  0
  -24.3084   -3.3043   29.4084 C   0  0  0  0  0  0  0  0  0  0  0  0
  -23.0125   -3.3971   28.5864 C   0  0  0  0  0  0  0  0  0  0  0  0
  -22.6217   -2.1617   28.4161 N   0  0  0  0  0  0  0  0  0  0  0  0
  -21.5941   -1.7165   28.3967 C   0  0  0  0  0  0  0  0  0  0  0  0
  1  2  2  0
  2  3  1  0
  2  4  1  0
  4  5  1  0
  3  6  1  0
  3  7  1  0
  4  9  1  0
  9 10  1  0
 10 17  1  0
 17 18  1  0
 18 19  2  3
 19 20  1  0
 20 21  2  3
 21 22  1  0
 10 11  1  0
  7  8  1  0
  8  5  1  0
 11 12  2  0
 12 13  1  0
 13 14  2  0
 14 15  1  0
 15 16  2  0
 16 11  1  0
M  END

$$$$
