No_4905-gen_results/8p0m/2024-11-27-11-27-31/
     RDKit          3D

 23 25  0  0  0  0  0  0  0  0999 V2000
  -28.0162   -0.8135   28.8779 C   0  0  0  0  0  0  0  0  0  0  0  0
  -27.0636   -0.1189   28.6079 C   0  0  0  0  0  0  0  0  0  0  0  0
  -25.7923   -0.4302   29.0761 C   0  0  0  0  0  0  0  0  0  0  0  0
  -25.5756   -1.5654   29.9363 C   0  0  0  0  0  0  0  0  0  0  0  0
  -26.7354   -2.3004   30.2173 C   0  0  0  0  0  0  0  0  0  0  0  0
  -27.9184   -1.9537   29.7629 C   0  0  0  0  0  0  0  0  0  0  0  0
  -29.0001   -2.7012   30.1151 O   0  0  0  0  0  0  0  0  0  0  0  0
  -24.3499    0.4889   28.7497 Cl  0  0  0  0  0  0  0  0  0  0  0  0
  -29.3705   -2.8230   31.4465 C   0  0  0  0  0  0  0  0  0  0  0  0
  -29.9499   -1.8071   31.9917 C   0  0  0  0  0  0  0  0  0  0  0  0
  -30.5022   -0.8733   31.3027 C   0  0  0  0  0  0  0  0  0  0  0  0
  -31.1088    0.3187   31.8939 C   0  0  0  0  0  0  0  0  0  0  0  0
  -31.1490    0.3336   33.3102 C   0  0  0  0  0  0  0  0  0  0  0  0
  -29.9291   -1.6983   33.4811 C   0  0  0  0  0  0  0  0  0  0  0  0
  -30.5391   -0.6157   34.0705 C   0  0  0  0  0  0  0  0  0  0  0  0
  -28.5294   -3.6217   32.0293 O   0  0  0  0  0  0  0  0  0  0  0  0
  -27.3308    1.2952   27.6612 Cl  0  0  0  0  0  0  0  0  0  0  0  0
  -31.7009    1.3569   31.0689 C   0  0  0  0  0  0  0  0  0  0  0  0
  -32.8714    1.7700   31.1395 C   0  0  0  0  0  0  0  0  0  0  0  0
  -30.8213    1.9145   30.0408 C   0  0  0  0  0  0  0  0  0  0  0  0
  -31.2903    2.7356   29.0414 C   0  0  0  0  0  0  0  0  0  0  0  0
  -33.4388    2.7052   30.2325 C   0  0  0  0  0  0  0  0  0  0  0  0
  -32.6011    3.2107   29.2388 C   0  0  0  0  0  0  0  0  0  0  0  0
  6  7  1  0
  3  8  1  0
  7  9  1  0
  9 10  1  0
  9 16  2  0
  2 17  1  0
 12 18  1  0
  1  2  2  0
  2  3  1  0
  3  4  2  0
  4  5  1  0
  5  6  2  0
  6  1  1  0
 18 19  2  0
 19 22  1  0
 22 23  2  0
 23 21  1  0
 21 20  2  0
 20 18  1  0
 10 11  2  0
 11 12  1  0
 12 13  2  0
 13 15  1  0
 15 14  2  0
 14 10  1  0
M  END

$$$$
