No_4849-gen_results/8p0m/2024-11-27-11-27-31/
     RDKit          3D

 12 12  0  0  0  0  0  0  0  0999 V2000
  -28.0162   -0.8135   28.8779 C   0  0  0  0  0  0  0  0  0  0  0  0
  -27.0636   -0.1189   28.6079 C   0  0  0  0  0  0  0  0  0  0  0  0
  -26.9716    0.7139   27.5060 C   0  0  0  0  0  0  0  0  0  0  0  0
  -25.8205    1.4909   27.1160 C   0  0  0  0  0  0  0  0  0  0  0  0
  -25.7505    2.3193   26.0233 C   0  0  0  0  0  0  0  0  0  0  0  0
  -26.8263    2.2181   25.1373 C   0  0  0  0  0  0  0  0  0  0  0  0
  -27.9219    1.4707   25.3693 C   0  0  0  0  0  0  0  0  0  0  0  0
  -27.9201    0.7049   26.5395 C   0  0  0  0  0  0  0  0  0  0  0  0
  -28.0691   -1.5855   30.1465 C   0  0  0  0  0  0  0  0  0  0  0  0
  -29.1643   -2.4346   30.4663 C   0  0  0  0  0  0  0  0  0  0  0  0
  -25.7307   -0.3214   29.4008 C   0  0  0  0  0  0  0  0  0  0  0  0
  -25.7394   -1.1276   30.5484 C   0  0  0  0  0  0  0  0  0  0  0  0
  1  2  2  3
  2  3  1  0
  1  9  1  0
  9 10  2  0
  2 11  1  0
 11 12  1  0
  3  4  2  0
  4  5  1  0
  5  6  2  0
  6  7  1  0
  7  8  2  0
  8  3  1  0
M  END

$$$$
