No_4456-gen_results/8p0m/2024-11-27-11-27-31/
     RDKit          3D

 13 14  0  0  0  0  0  0  0  0999 V2000
  -28.0162   -0.8135   28.8779 C   0  0  0  0  0  0  0  0  0  0  0  0
  -27.0636   -0.1189   28.6079 C   0  0  0  0  0  0  0  0  0  0  0  0
  -27.0010    0.6913   27.4910 C   0  0  0  0  0  0  0  0  0  0  0  0
  -25.8548    1.4825   27.0830 C   0  0  0  0  0  0  0  0  0  0  0  0
  -24.6901    1.4526   27.8807 C   0  0  0  0  0  0  0  0  0  0  0  0
  -23.4878    2.1451   27.6011 C   0  0  0  0  0  0  0  0  0  0  0  0
  -25.7206   -0.1766   29.3315 C   0  0  0  0  0  0  0  0  0  0  0  0
  -24.6020    0.5547   29.0326 C   0  0  0  0  0  0  0  0  0  0  0  0
  -28.0410   -1.4924   30.2708 C   0  0  0  0  0  0  0  0  0  0  0  0
  -26.8086   -1.6850   30.9298 C   0  0  0  0  0  0  0  0  0  0  0  0
  -25.7082   -0.8156   30.6427 C   0  0  0  0  0  0  0  0  0  0  0  0
  -22.3235    1.9004   28.1866 N   0  0  0  0  0  0  0  0  0  0  0  0
  -23.3794    2.8437   26.4076 N   0  0  0  0  0  0  0  0  0  0  0  0
  5  6  1  0
  6 12  2  0
  6 13  1  0
  1  2  2  0
  7 11  2  0
 11 10  1  0
 10  9  2  0
  9  1  1  0
  2  3  1  0
  3  4  2  0
  4  5  1  0
  5  8  2  0
  8  7  1  0
  7  2  1  0
M  END

$$$$
