No_4985-gen_results/8p0m/2024-11-27-11-27-31/
     RDKit          3D

 19 20  0  0  0  0  0  0  0  0999 V2000
  -28.0162   -0.8135   28.8779 C   0  0  0  0  0  0  0  0  0  0  0  0
  -28.4690   -0.7850   29.8287 C   0  0  0  0  0  0  0  0  0  0  0  0
  -26.5455   -0.8762   28.8500 C   0  0  0  0  0  0  0  0  0  0  0  0
  -25.6825   -0.7773   27.6829 C   0  0  0  0  0  0  0  0  0  0  0  0
  -27.9181   -1.0034   31.1877 C   0  0  0  0  0  0  0  0  0  0  0  0
  -26.5308   -1.0794   31.2463 C   0  0  0  0  0  0  0  0  0  0  0  0
  -25.7798   -1.0462   30.0905 C   0  0  0  0  0  0  0  0  0  0  0  0
  -25.2322    0.5793   27.3292 C   0  0  0  0  0  0  0  0  0  0  0  0
  -23.9816    0.8698   27.7676 C   0  0  0  0  0  0  0  0  0  0  0  0
  -23.4121    2.1478   27.3881 C   0  0  0  0  0  0  0  0  0  0  0  0
  -24.0639    2.9854   26.5439 C   0  0  0  0  0  0  0  0  0  0  0  0
  -25.8821    1.3934   26.4161 C   0  0  0  0  0  0  0  0  0  0  0  0
  -25.3273    2.5768   26.0292 C   0  0  0  0  0  0  0  0  0  0  0  0
  -30.0530   -0.7053   29.8901 C   0  0  0  0  0  0  0  0  0  0  0  0
  -30.5584   -0.0267   28.9251 N   0  0  0  0  0  0  0  0  0  0  0  0
  -31.5228    0.6834   28.9458 C   0  0  0  0  0  0  0  0  0  0  0  0
  -31.8817    1.6366   28.7342 C   0  0  0  0  0  0  0  0  0  0  0  0
  -30.8361    2.6306   28.4150 C   0  0  0  0  0  0  0  0  0  0  0  0
  -30.7751    3.9355   28.7260 C   0  0  0  0  0  0  0  0  0  0  0  0
  3  4  1  0
  4  8  1  0
  2 14  1  0
 14 15  1  0
 15 16  1  0
 16 17  2  3
 17 18  1  0
 18 19  2  0
  1  2  2  0
  2  5  1  0
  5  6  2  0
  6  7  1  0
  7  3  2  0
  3  1  1  0
  8  9  2  0
  9 10  1  0
 10 11  2  0
 11 13  1  0
 13 12  2  0
 12  8  1  0
M  END

$$$$
