No_4078-gen_results/8p0m/2024-11-27-11-27-31/
     RDKit          3D

 35 38  0  0  0  0  0  0  0  0999 V2000
  -28.1229   -1.3353   28.4874 O   0  0  0  0  0  0  0  0  0  0  0  0
  -28.5208   -0.4363   29.0779 C   0  0  0  0  0  0  0  0  0  0  0  0
  -28.5894    0.5916   28.9464 C   0  0  0  0  0  0  0  0  0  0  0  0
  -29.1246   -0.9399   30.4266 N   0  0  0  0  0  0  0  0  0  0  0  0
  -27.6200    1.2738   28.1389 C   0  0  0  0  0  0  0  0  0  0  0  0
  -27.8269    1.5809   26.8229 C   0  0  0  0  0  0  0  0  0  0  0  0
  -26.7252    1.9818   25.9180 C   0  0  0  0  0  0  0  0  0  0  0  0
  -25.4281    2.1174   26.3956 C   0  0  0  0  0  0  0  0  0  0  0  0
  -25.1985    1.8126   27.7790 C   0  0  0  0  0  0  0  0  0  0  0  0
  -26.2081    1.3891   28.5338 C   0  0  0  0  0  0  0  0  0  0  0  0
  -29.1651   -2.3573   30.7907 C   0  0  0  0  0  0  0  0  0  0  0  0
  -23.8053    1.9092   28.2708 C   0  0  0  0  0  0  0  0  0  0  0  0
  -22.7308    1.8035   27.4647 N   0  0  0  0  0  0  0  0  0  0  0  0
  -23.5981    1.9926   29.5239 O   0  0  0  0  0  0  0  0  0  0  0  0
  -21.3449    1.8073   27.9215 C   0  0  0  0  0  0  0  0  0  0  0  0
  -29.7079   -0.0757   31.3945 C   0  0  0  0  0  0  0  0  0  0  0  0
  -22.8421    1.9046   25.9913 C   0  0  0  0  0  0  0  0  0  0  0  0
  -24.2800    2.1879   25.5236 C   0  0  0  0  0  0  0  0  0  0  0  0
  -30.0664   -3.1619   29.9755 C   0  0  0  0  0  0  0  0  0  0  0  0
  -29.9221   -4.5923   30.4585 C   0  0  0  0  0  0  0  0  0  0  0  0
  -28.7867   -4.8831   30.9405 O   0  0  0  0  0  0  0  0  0  0  0  0
  -30.2885   -5.5207   29.2637 C   0  0  0  0  0  0  0  0  0  0  0  0
  -31.3741   -6.4146   29.4503 C   0  0  0  0  0  0  0  0  0  0  0  0
  -31.7304   -7.1800   28.3840 C   0  0  0  0  0  0  0  0  0  0  0  0
  -31.2519   -6.8373   27.1101 C   0  0  0  0  0  0  0  0  0  0  0  0
  -30.2814   -5.7919   27.0035 C   0  0  0  0  0  0  0  0  0  0  0  0
  -29.8887   -5.1033   28.0114 C   0  0  0  0  0  0  0  0  0  0  0  0
  -30.5763   -0.5128   32.2736 C   0  0  0  0  0  0  0  0  0  0  0  0
  -31.1527    0.3822   33.1625 C   0  0  0  0  0  0  0  0  0  0  0  0
  -30.8158    1.7320   33.0752 C   0  0  0  0  0  0  0  0  0  0  0  0
  -29.9077    2.1972   32.1474 C   0  0  0  0  0  0  0  0  0  0  0  0
  -29.3469    1.3212   31.3020 C   0  0  0  0  0  0  0  0  0  0  0  0
  -29.6243    3.4829   32.0825 F   0  0  0  0  0  0  0  0  0  0  0  0
  -31.3519   -2.6359   30.2491 O   0  0  0  0  0  0  0  0  0  0  0  0
  -32.2491   -2.3434   29.2518 C   0  0  0  0  0  0  0  0  0  0  0  0
  1  2  2  0
  2  3  1  0
  2  4  1  0
  3  5  1  0
  4 11  1  0
  9 12  1  0
 12 13  1  0
 12 14  2  0
 13 15  1  0
  4 16  1  0
 13 17  1  0
  8 18  1  0
 17 18  1  0
 11 19  1  0
 19 20  1  0
 20 21  1  0
 20 22  1  0
 31 33  1  0
 19 34  1  0
 34 35  1  0
 16 28  2  0
 28 29  1  0
 29 30  2  0
 30 31  1  0
 31 32  2  0
 32 16  1  0
  5  6  2  0
  6  7  1  0
  7  8  2  0
  8  9  1  0
  9 10  2  0
 10  5  1  0
 22 23  2  0
 23 24  1  0
 24 25  2  0
 25 26  1  0
 26 27  2  0
 27 22  1  0
M  END

$$$$
