No_4881-gen_results/8p0m/2024-11-27-11-27-31/
     RDKit          3D

 28 30  0  0  0  0  0  0  0  0999 V2000
  -28.0162   -0.8135   28.8779 C   0  0  0  0  0  0  0  0  0  0  0  0
  -27.0636   -0.1190   28.6079 C   0  0  0  0  0  0  0  0  0  0  0  0
  -26.9716    0.7139   27.5060 C   0  0  0  0  0  0  0  0  0  0  0  0
  -28.1053    0.7744   26.6421 C   0  0  0  0  0  0  0  0  0  0  0  0
  -29.2041    0.1179   27.0477 C   0  0  0  0  0  0  0  0  0  0  0  0
  -30.3488    0.2568   26.2203 C   0  0  0  0  0  0  0  0  0  0  0  0
  -29.1817   -0.6758   28.1173 C   0  0  0  0  0  0  0  0  0  0  0  0
  -31.3387   -0.2347   26.5001 O   0  0  0  0  0  0  0  0  0  0  0  0
  -30.2776    0.8652   25.0275 O   0  0  0  0  0  0  0  0  0  0  0  0
  -25.6595    1.4147   27.1427 C   0  0  0  0  0  0  0  0  0  0  0  0
  -25.1496    2.3427   28.1439 C   0  0  0  0  0  0  0  0  0  0  0  0
  -25.6073    2.7461   28.9577 C   0  0  0  0  0  0  0  0  0  0  0  0
  -25.9259    3.6443   29.7407 C   0  0  0  0  0  0  0  0  0  0  0  0
  -26.7538    3.5715   30.6032 N   0  0  0  0  0  0  0  0  0  0  0  0
  -27.3422    4.4448   31.3225 C   0  0  0  0  0  0  0  0  0  0  0  0
  -23.6143    2.5673   27.7911 C   0  0  0  0  0  0  0  0  0  0  0  0
  -22.6951    1.6062   28.4297 C   0  0  0  0  0  0  0  0  0  0  0  0
  -22.4939    0.5544   28.0512 N   0  0  0  0  0  0  0  0  0  0  0  0
  -23.0011   -0.4551   28.1946 C   0  0  0  0  0  0  0  0  0  0  0  0
  -25.3438    4.7849   29.5148 O   0  0  0  0  0  0  0  0  0  0  0  0
  -24.2785   -0.5995   28.8243 C   0  0  0  0  0  0  0  0  0  0  0  0
  -24.7388   -1.8961   29.2439 C   0  0  0  0  0  0  0  0  0  0  0  0
  -24.7573   -2.9200   28.3856 C   0  0  0  0  0  0  0  0  0  0  0  0
  -25.1614   -4.2290   28.9198 C   0  0  0  0  0  0  0  0  0  0  0  0
  -26.1493   -4.2334   29.9678 C   0  0  0  0  0  0  0  0  0  0  0  0
  -26.4345   -3.0602   30.6583 C   0  0  0  0  0  0  0  0  0  0  0  0
  -25.7196   -1.8397   30.3553 C   0  0  0  0  0  0  0  0  0  0  0  0
  -25.3686    0.1078   28.1350 O   0  0  0  0  0  0  0  0  0  0  0  0
  5  6  1  0
  6  8  1  0
  6  9  2  0
  3 10  1  0
 10 11  1  0
 11 12  2  3
 12 13  1  0
 13 14  1  0
 14 15  1  0
 11 16  1  0
 16 17  1  0
 17 18  1  0
 18 19  1  0
 13 20  2  0
 19 21  2  3
 21 22  1  0
  2 28  1  0
 21 28  1  0
 22 23  2  0
 23 24  1  0
 24 25  2  0
 25 26  1  0
 26 27  2  0
 27 22  1  0
  1  2  2  0
  2  3  1  0
  3  4  2  0
  4  5  1  0
  5  7  2  0
  7  1  1  0
M  END

$$$$
