No_4776-gen_results/8p0m/2024-11-27-11-27-31/
     RDKit          3D

 15 16  0  0  0  0  0  0  0  0999 V2000
  -28.0162   -0.8135   28.8779 C   0  0  0  0  0  0  0  0  0  0  0  0
  -27.0636   -0.1189   28.6079 C   0  0  0  0  0  0  0  0  0  0  0  0
  -25.7647   -0.3897   29.0360 C   0  0  0  0  0  0  0  0  0  0  0  0
  -24.5516    0.4058   28.7646 C   0  0  0  0  0  0  0  0  0  0  0  0
  -24.6957    1.4480   27.7988 C   0  0  0  0  0  0  0  0  0  0  0  0
  -25.9755    1.7250   27.3077 C   0  0  0  0  0  0  0  0  0  0  0  0
  -27.0718    1.0134   27.6535 C   0  0  0  0  0  0  0  0  0  0  0  0
  -29.1830   -0.1483   29.1167 N   0  0  0  0  0  0  0  0  0  0  0  0
  -29.7307    0.5955   28.5176 C   0  0  0  0  0  0  0  0  0  0  0  0
  -31.0831    0.9879   28.8650 C   0  0  0  0  0  0  0  0  0  0  0  0
  -29.8358   -0.3081   30.4447 C   0  0  0  0  0  0  0  0  0  0  0  0
  -31.0674    0.4117   30.2166 C   0  0  0  0  0  0  0  0  0  0  0  0
  -23.5125    2.2476   27.4893 C   0  0  0  0  0  0  0  0  0  0  0  0
  -23.7631    3.2163   26.8009 F   0  0  0  0  0  0  0  0  0  0  0  0
  -22.8151    2.6876   28.5107 F   0  0  0  0  0  0  0  0  0  0  0  0
  1  2  2  3
  2  3  1  0
  3  4  1  0
  4  5  1  0
  5  6  1  0
  2  7  1  0
  6  7  1  0
  1  8  1  0
  8  9  1  0
  9 10  2  0
  8 11  1  0
 10 12  1  0
 11 12  2  0
  5 13  1  0
 13 14  1  0
 13 15  1  0
M  END

$$$$
