No_4920-gen_results/8p0m/2024-11-27-11-27-31/
     RDKit          3D

 35 38  0  0  0  0  0  0  0  0999 V2000
  -28.0162   -0.8135   28.8779 C   0  0  0  0  0  0  0  0  0  0  0  0
  -27.0636   -0.1189   28.6079 C   0  0  0  0  0  0  0  0  0  0  0  0
  -25.7923   -0.4302   29.0761 C   0  0  0  0  0  0  0  0  0  0  0  0
  -25.5756   -1.5654   29.9363 C   0  0  0  0  0  0  0  0  0  0  0  0
  -26.7354   -2.3004   30.2173 C   0  0  0  0  0  0  0  0  0  0  0  0
  -27.9184   -1.9537   29.7629 C   0  0  0  0  0  0  0  0  0  0  0  0
  -29.0001   -2.7012   30.1151 O   0  0  0  0  0  0  0  0  0  0  0  0
  -24.5290    0.3490   28.7998 C   0  0  0  0  0  0  0  0  0  0  0  0
  -24.4808    1.2113   27.7998 C   0  0  0  0  0  0  0  0  0  0  0  0
  -23.2478    1.8974   27.4951 C   0  0  0  0  0  0  0  0  0  0  0  0
  -22.0497    1.5890   28.1642 C   0  0  0  0  0  0  0  0  0  0  0  0
  -23.3072    0.0149   29.4618 C   0  0  0  0  0  0  0  0  0  0  0  0
  -22.0852    0.6899   29.1374 C   0  0  0  0  0  0  0  0  0  0  0  0
  -28.8808   -3.9653   30.6064 C   0  0  0  0  0  0  0  0  0  0  0  0
  -30.1311   -4.6678   30.7784 C   0  0  0  0  0  0  0  0  0  0  0  0
  -30.8604   -4.7734   29.8876 O   0  0  0  0  0  0  0  0  0  0  0  0
  -30.5397   -4.9515   32.0146 N   0  0  0  0  0  0  0  0  0  0  0  0
  -29.7695   -4.7220   33.2639 C   0  0  0  0  0  0  0  0  0  0  0  0
  -31.8158   -5.6814   32.1706 C   0  0  0  0  0  0  0  0  0  0  0  0
  -29.2666   -0.5196   28.4457 O   0  0  0  0  0  0  0  0  0  0  0  0
  -30.1957    0.0498   29.2477 C   0  0  0  0  0  0  0  0  0  0  0  0
  -30.0229    1.2631   29.6502 C   0  0  0  0  0  0  0  0  0  0  0  0
  -29.7993    2.2665   28.6938 C   0  0  0  0  0  0  0  0  0  0  0  0
  -30.4425    3.3304   28.8265 C   0  0  0  0  0  0  0  0  0  0  0  0
  -29.8905    1.6169   31.0173 C   0  0  0  0  0  0  0  0  0  0  0  0
  -29.9499    0.6464   32.0941 C   0  0  0  0  0  0  0  0  0  0  0  0
  -30.2177    4.3645   27.8968 C   0  0  0  0  0  0  0  0  0  0  0  0
  -29.1974    0.8460   33.1315 C   0  0  0  0  0  0  0  0  0  0  0  0
  -29.0318   -0.2122   34.1515 C   0  0  0  0  0  0  0  0  0  0  0  0
  -29.7217   -1.4136   33.8964 C   0  0  0  0  0  0  0  0  0  0  0  0
  -30.4925   -1.5787   32.7775 C   0  0  0  0  0  0  0  0  0  0  0  0
  -30.5354   -0.5458   31.8321 C   0  0  0  0  0  0  0  0  0  0  0  0
  -29.4681    4.1476   26.7409 C   0  0  0  0  0  0  0  0  0  0  0  0
  -28.8062    2.9366   26.5782 C   0  0  0  0  0  0  0  0  0  0  0  0
  -28.9798    2.0156   27.5767 C   0  0  0  0  0  0  0  0  0  0  0  0
  6  7  1  0
  3  8  1  0
  7 14  1  0
 14 15  1  0
 15 16  2  0
 15 17  1  0
 17 18  1  0
 17 19  1  0
  1 20  1  0
 20 21  1  0
 21 22  1  0
 22 23  1  0
 22 25  1  0
 25 26  1  0
 26 28  2  0
 28 29  1  0
 29 30  2  0
 30 31  1  0
 31 32  2  0
 32 26  1  0
  1  2  2  0
  2  3  1  0
  3  4  2  0
  4  5  1  0
  5  6  2  0
  6  1  1  0
 23 24  2  0
 24 27  1  0
 27 33  2  0
 33 34  1  0
 34 35  2  0
 35 23  1  0
  8  9  2  0
  9 10  1  0
 10 11  2  0
 11 13  1  0
 13 12  2  0
 12  8  1  0
M  END

$$$$
