No_4102-gen_results/8p0m/2024-11-27-11-27-31/
     RDKit          3D

 13 13  0  0  0  0  0  0  0  0999 V2000
  -28.0162   -0.8135   28.8779 C   0  0  0  0  0  0  0  0  0  0  0  0
  -27.0636   -0.1189   28.6079 C   0  0  0  0  0  0  0  0  0  0  0  0
  -25.7923   -0.4302   29.0761 C   0  0  0  0  0  0  0  0  0  0  0  0
  -24.5456    0.3494   28.8225 C   0  0  0  0  0  0  0  0  0  0  0  0
  -24.6586    1.4196   27.8878 C   0  0  0  0  0  0  0  0  0  0  0  0
  -25.9471    1.6811   27.3792 C   0  0  0  0  0  0  0  0  0  0  0  0
  -27.0439    0.9739   27.6871 C   0  0  0  0  0  0  0  0  0  0  0  0
  -29.0018   -0.5422   28.2140 F   0  0  0  0  0  0  0  0  0  0  0  0
  -27.8048   -2.1638   28.9165 F   0  0  0  0  0  0  0  0  0  0  0  0
  -28.3273   -0.5435   30.2371 F   0  0  0  0  0  0  0  0  0  0  0  0
  -23.3950    1.8130   27.5131 C   0  0  0  0  0  0  0  0  0  0  0  0
  -22.2091    1.4918   28.0555 N   0  0  0  0  0  0  0  0  0  0  0  0
  -23.2926    2.7217   26.2938 C   0  0  0  0  0  0  0  0  0  0  0  0
  1  2  1  0
  1  8  1  0
  1  9  1  0
  1 10  1  0
  5 11  1  0
 11 12  2  0
 11 13  1  0
  2  3  2  0
  3  4  1  0
  4  5  2  0
  5  6  1  0
  6  7  2  0
  7  2  1  0
M  END

$$$$
