No_4846-gen_results/8p0m/2024-11-27-11-27-31/
     RDKit          3D

 19 22  0  0  0  0  0  0  0  0999 V2000
  -28.0162   -0.8135   28.8779 C   0  0  0  0  0  0  0  0  0  0  0  0
  -27.0636   -0.1189   28.6079 C   0  0  0  0  0  0  0  0  0  0  0  0
  -25.7647   -0.3897   29.0360 C   0  0  0  0  0  0  0  0  0  0  0  0
  -24.5517    0.4058   28.7646 C   0  0  0  0  0  0  0  0  0  0  0  0
  -24.6957    1.4480   27.7988 C   0  0  0  0  0  0  0  0  0  0  0  0
  -25.9755    1.7250   27.3077 C   0  0  0  0  0  0  0  0  0  0  0  0
  -27.0718    1.0134   27.6535 C   0  0  0  0  0  0  0  0  0  0  0  0
  -29.2261   -0.0677   29.3149 C   0  0  0  0  0  0  0  0  0  0  0  0
  -29.9074   -0.3248   30.1570 C   0  0  0  0  0  0  0  0  0  0  0  0
  -29.4568   -0.8241   31.3159 C   0  0  0  0  0  0  0  0  0  0  0  0
  -28.4557   -1.8546   31.2095 C   0  0  0  0  0  0  0  0  0  0  0  0
  -27.5098   -1.5605   30.1376 C   0  0  0  0  0  0  0  0  0  0  0  0
  -26.0737   -1.2244   30.2488 C   0  0  0  0  0  0  0  0  0  0  0  0
  -23.2639   -0.0120   29.3147 C   0  0  0  0  0  0  0  0  0  0  0  0
  -23.0619   -0.6172   30.2499 C   0  0  0  0  0  0  0  0  0  0  0  0
  -22.1241    0.4731   28.4573 C   0  0  0  0  0  0  0  0  0  0  0  0
  -22.1900    1.5068   27.5406 C   0  0  0  0  0  0  0  0  0  0  0  0
  -23.4854    2.0291   27.2015 C   0  0  0  0  0  0  0  0  0  0  0  0
  -26.1569    3.2789   27.6979 C   0  0  0  0  0  0  0  0  0  0  0  0
  3 13  1  0
 12 13  1  0
 14 15  1  0
  6 19  1  0
  1  2  1  0
  2  3  1  0
  3  4  2  0
  5  6  2  0
  6  7  1  0
  7  2  2  0
  4  5  1  0
  5 18  1  0
 18 17  2  0
 17 16  1  0
 16 14  2  0
 14  4  1  0
  1  8  2  0
  8  9  1  0
  9 10  2  0
 10 11  1  0
 11 12  2  0
 12  1  1  0
M  END

$$$$
