No_4089-gen_results/8p0m/2024-11-27-11-27-31/
     RDKit          3D

  9  9  0  0  0  0  0  0  0  0999 V2000
  -28.0544   -1.0498   28.7246 N   0  0  0  0  0  0  0  0  0  0  0  0
  -26.9659   -0.4722   28.7709 C   0  0  0  0  0  0  0  0  0  0  0  0
  -25.9289   -1.0196   29.5059 C   0  0  0  0  0  0  0  0  0  0  0  0
  -26.1023   -2.2905   30.2023 C   0  0  0  0  0  0  0  0  0  0  0  0
  -27.3441   -2.8033   30.0964 C   0  0  0  0  0  0  0  0  0  0  0  0
  -28.3049   -2.1942   29.4440 C   0  0  0  0  0  0  0  0  0  0  0  0
  -26.6719    0.8125   28.1050 C   0  0  0  0  0  0  0  0  0  0  0  0
  -25.4610    1.2225   27.8130 C   0  0  0  0  0  0  0  0  0  0  0  0
  -24.3534    0.6194   28.6342 C   0  0  0  0  0  0  0  0  0  0  0  0
  2  7  1  0
  7  8  2  3
  8  9  1  0
  1  2  2  0
  2  3  1  0
  3  4  2  0
  4  5  1  0
  5  6  2  0
  6  1  1  0
M  END

$$$$
