No_427-gen_results/8p0m/2024-11-27-11-27-31/
     RDKit          3D

 17 18  0  0  0  0  0  0  0  0999 V2000
  -28.0162   -0.8135   28.8779 C   0  0  0  0  0  0  0  0  0  0  0  0
  -28.4690   -0.7850   29.8287 C   0  0  0  0  0  0  0  0  0  0  0  0
  -28.1816    0.4277   28.1134 C   0  0  0  0  0  0  0  0  0  0  0  0
  -28.9841    1.4155   28.5154 C   0  0  0  0  0  0  0  0  0  0  0  0
  -29.3802    0.1384   30.4612 C   0  0  0  0  0  0  0  0  0  0  0  0
  -29.5415    1.2736   29.7242 C   0  0  0  0  0  0  0  0  0  0  0  0
  -27.4586    0.4934   26.7701 C   0  0  0  0  0  0  0  0  0  0  0  0
  -26.0264    0.3840   26.7617 C   0  0  0  0  0  0  0  0  0  0  0  0
  -25.2257    1.3507   27.3721 C   0  0  0  0  0  0  0  0  0  0  0  0
  -23.8545    1.0997   27.5822 C   0  0  0  0  0  0  0  0  0  0  0  0
  -22.9465    2.1788   27.6417 C   0  0  0  0  0  0  0  0  0  0  0  0
  -23.4695    3.4464   27.5659 C   0  0  0  0  0  0  0  0  0  0  0  0
  -25.4640    2.7818   27.1679 C   0  0  0  0  0  0  0  0  0  0  0  0
  -24.6413    3.7380   27.2407 C   0  0  0  0  0  0  0  0  0  0  0  0
  -28.1313    0.7511   25.6086 C   0  0  0  0  0  0  0  0  0  0  0  0
  -29.1872    1.5466   25.4997 C   0  0  0  0  0  0  0  0  0  0  0  0
  -29.8740    1.7192   24.2823 C   0  0  0  0  0  0  0  0  0  0  0  0
  3  7  1  0
  7  8  1  0
  8  9  1  0
  7 15  1  0
 15 16  2  3
 16 17  1  0
  1  2  2  0
  2  5  1  0
  5  6  2  0
  6  4  1  0
  4  3  2  0
  3  1  1  0
  9 10  2  0
 10 11  1  0
 11 12  2  0
 12 14  1  0
 14 13  2  0
 13  9  1  0
M  END

$$$$
