No_4262-gen_results/8p0m/2024-11-27-11-27-31/
     RDKit          3D

 23 25  0  0  0  0  0  0  0  0999 V2000
  -28.0162   -0.8135   28.8779 C   0  0  0  0  0  0  0  0  0  0  0  0
  -27.0636   -0.1190   28.6079 C   0  0  0  0  0  0  0  0  0  0  0  0
  -25.7923   -0.4302   29.0761 C   0  0  0  0  0  0  0  0  0  0  0  0
  -25.5756   -1.5654   29.9363 C   0  0  0  0  0  0  0  0  0  0  0  0
  -26.7354   -2.3004   30.2173 C   0  0  0  0  0  0  0  0  0  0  0  0
  -27.9184   -1.9537   29.7629 C   0  0  0  0  0  0  0  0  0  0  0  0
  -27.1057    1.1023   27.7593 C   0  0  0  0  0  0  0  0  0  0  0  0
  -27.8576    1.5309   27.2156 C   0  0  0  0  0  0  0  0  0  0  0  0
  -29.2421    0.8816   27.2919 C   0  0  0  0  0  0  0  0  0  0  0  0
  -29.5768   -0.0587   28.1159 C   0  0  0  0  0  0  0  0  0  0  0  0
  -30.5084    1.3713   26.7588 C   0  0  0  0  0  0  0  0  0  0  0  0
  -30.6836    1.7923   25.7247 C   0  0  0  0  0  0  0  0  0  0  0  0
  -29.5871    1.7990   24.6842 C   0  0  0  0  0  0  0  0  0  0  0  0
  -28.5619    1.9875   24.7380 C   0  0  0  0  0  0  0  0  0  0  0  0
  -27.6194    1.6266   25.9185 C   0  0  0  0  0  0  0  0  0  0  0  0
  -30.5246   -0.7252   28.5929 O   0  0  0  0  0  0  0  0  0  0  0  0
  -29.0428   -2.6502   30.1278 O   0  0  0  0  0  0  0  0  0  0  0  0
  -29.0910   -3.2229   31.4256 C   0  0  0  0  0  0  0  0  0  0  0  0
  -29.6986   -2.5150   32.4268 C   0  0  0  0  0  0  0  0  0  0  0  0
  -29.3065   -1.4345   32.6413 O   0  0  0  0  0  0  0  0  0  0  0  0
  -28.9002   -0.7251   33.2542 C   0  0  0  0  0  0  0  0  0  0  0  0
  -29.2626   -0.5788   34.5141 C   0  0  0  0  0  0  0  0  0  0  0  0
  -28.6403    0.3436   35.4210 C   0  0  0  0  0  0  0  0  0  0  0  0
  2  7  1  0
  8  9  1  0
  1 10  1  0
  9 10  1  0
  9 11  1  0
 11 12  2  0
 12 13  1  0
 13 14  2  0
  8 15  1  0
 14 15  1  0
 10 16  2  0
  6 17  1  0
 17 18  1  0
 18 19  1  0
 19 20  1  0
 20 21  1  0
 21 22  2  3
 22 23  1  0
  7  8  1  0
  1  2  1  0
  2  3  2  0
  3  4  1  0
  4  5  2  0
  5  6  1  0
  6  1  2  0
M  END

$$$$
