No_4505-gen_results/8p0m/2024-11-27-11-27-31/
     RDKit          3D

 14 14  0  0  0  0  0  0  0  0999 V2000
  -28.1229   -1.3353   28.4874 O   0  0  0  0  0  0  0  0  0  0  0  0
  -27.4806   -0.4044   28.7094 C   0  0  0  0  0  0  0  0  0  0  0  0
  -26.3804   -0.0867   27.9394 C   0  0  0  0  0  0  0  0  0  0  0  0
  -27.8993    0.6459   29.6320 N   0  0  0  0  0  0  0  0  0  0  0  0
  -26.5626    0.2805   26.8037 F   0  0  0  0  0  0  0  0  0  0  0  0
  -25.5582    0.9618   28.5102 F   0  0  0  0  0  0  0  0  0  0  0  0
  -25.3175   -0.9252   28.2883 F   0  0  0  0  0  0  0  0  0  0  0  0
  -29.0688    0.3902   30.4346 C   0  0  0  0  0  0  0  0  0  0  0  0
  -30.2555    0.3971   29.7639 C   0  0  0  0  0  0  0  0  0  0  0  0
  -31.1249    1.1448   30.3997 C   0  0  0  0  0  0  0  0  0  0  0  0
  -32.3528    1.4969   29.7387 C   0  0  0  0  0  0  0  0  0  0  0  0
  -32.6050    0.8652   28.4889 C   0  0  0  0  0  0  0  0  0  0  0  0
  -31.6600    0.0422   27.8896 C   0  0  0  0  0  0  0  0  0  0  0  0
  -30.4870   -0.1067   28.5053 C   0  0  0  0  0  0  0  0  0  0  0  0
  1  2  2  0
  2  3  1  0
  2  4  1  0
  3  5  1  0
  3  6  1  0
  3  7  1  0
  4  8  1  0
  8  9  1  0
  9 10  2  0
 10 11  1  0
 11 12  2  0
 12 13  1  0
 13 14  2  0
 14  9  1  0
M  END

$$$$
