No_4294-gen_results/8p0m/2024-11-27-11-27-31/
     RDKit          3D

 13 14  0  0  0  0  0  0  0  0999 V2000
  -28.0162   -0.8135   28.8779 C   0  0  0  0  0  0  0  0  0  0  0  0
  -27.0636   -0.1190   28.6079 C   0  0  0  0  0  0  0  0  0  0  0  0
  -26.9716    0.7139   27.5060 C   0  0  0  0  0  0  0  0  0  0  0  0
  -28.1053    0.7744   26.6421 C   0  0  0  0  0  0  0  0  0  0  0  0
  -29.2008    0.1044   27.0527 C   0  0  0  0  0  0  0  0  0  0  0  0
  -29.2096   -0.6029   28.1853 C   0  0  0  0  0  0  0  0  0  0  0  0
  -30.3749    0.2232   26.1670 C   0  0  0  0  0  0  0  0  0  0  0  0
  -30.9325    1.2973   25.7012 Cl  0  0  0  0  0  0  0  0  0  0  0  0
  -31.2347   -0.8241   26.4006 O   0  0  0  0  0  0  0  0  0  0  0  0
  -25.6676    1.3976   27.1226 C   0  0  0  0  0  0  0  0  0  0  0  0
  -24.5364    1.0447   27.7583 C   0  0  0  0  0  0  0  0  0  0  0  0
  -24.2604    0.0775   28.6184 C   0  0  0  0  0  0  0  0  0  0  0  0
  -25.5207   -0.5464   29.1388 C   0  0  0  0  0  0  0  0  0  0  0  0
  5  7  1  0
  7  8  1  0
  7  9  1  0
  3 10  1  0
 10 11  2  0
 11 12  1  0
 12 13  2  0
 13  2  1  0
  1  2  2  0
  2  3  1  0
  3  4  2  0
  4  5  1  0
  5  6  2  0
  6  1  1  0
M  END

$$$$
