No_4042-gen_results/8p0m/2024-11-27-11-27-31/
     RDKit          3D

  7  7  0  0  0  0  0  0  0  0999 V2000
  -28.1229   -1.3353   28.4874 O   0  0  0  0  0  0  0  0  0  0  0  0
  -27.4806   -0.4044   28.7094 C   0  0  0  0  0  0  0  0  0  0  0  0
  -27.2412    0.3910   29.5098 N   0  0  0  0  0  0  0  0  0  0  0  0
  -26.4066   -0.1069   27.4496 C   0  0  0  0  0  0  0  0  0  0  0  0
  -25.4358    0.8473   27.6341 C   0  0  0  0  0  0  0  0  0  0  0  0
  -26.3356    1.4139   29.7672 C   0  0  0  0  0  0  0  0  0  0  0  0
  -25.4003    1.6744   28.7682 C   0  0  0  0  0  0  0  0  0  0  0  0
  1  2  2  0
  2  3  1  0
  2  4  1  0
  4  5  3  0
  5  7  1  0
  6  7  1  0
  3  6  1  0
M  END

$$$$
