No_4232-gen_results/8p0m/2024-11-27-11-27-31/
     RDKit          3D

 16 18  0  0  0  0  0  0  0  0999 V2000
  -28.0162   -0.8135   28.8779 C   0  0  0  0  0  0  0  0  0  0  0  0
  -28.4690   -0.7850   29.8287 C   0  0  0  0  0  0  0  0  0  0  0  0
  -28.1960    0.3478   28.0550 C   0  0  0  0  0  0  0  0  0  0  0  0
  -29.0191    1.3501   28.3782 C   0  0  0  0  0  0  0  0  0  0  0  0
  -29.4107    0.1803   30.3782 C   0  0  0  0  0  0  0  0  0  0  0  0
  -29.6059    1.2495   29.6193 C   0  0  0  0  0  0  0  0  0  0  0  0
  -27.4597    0.3802   26.7091 C   0  0  0  0  0  0  0  0  0  0  0  0
  -27.9298    0.5836   25.6804 C   0  0  0  0  0  0  0  0  0  0  0  0
  -27.1251    0.5285   24.4261 C   0  0  0  0  0  0  0  0  0  0  0  0
  -26.0345    0.1369   26.7811 C   0  0  0  0  0  0  0  0  0  0  0  0
  -25.1680    0.2141   25.7256 C   0  0  0  0  0  0  0  0  0  0  0  0
  -23.7755    0.0484   25.9343 C   0  0  0  0  0  0  0  0  0  0  0  0
  -25.7814    0.4559   24.4715 C   0  0  0  0  0  0  0  0  0  0  0  0
  -23.4734    0.2328   27.4099 C   0  0  0  0  0  0  0  0  0  0  0  0
  -25.3923    0.1542   28.1067 C   0  0  0  0  0  0  0  0  0  0  0  0
  -24.1171    0.1867   28.3551 C   0  0  0  0  0  0  0  0  0  0  0  0
  3  7  1  0
 11 12  2  0
 12 14  1  0
 14 16  2  0
 16 15  1  0
 15 10  2  0
  1  2  2  0
  2  5  1  0
  5  6  2  0
  6  4  1  0
  4  3  2  0
  3  1  1  0
  7  8  2  0
  8  9  1  0
  9 13  2  0
 13 11  1  0
 11 10  1  0
 10  7  1  0
M  END

$$$$
