No_4724-gen_results/8p0m/2024-11-27-11-27-31/
     RDKit          3D

 15 16  0  0  0  0  0  0  0  0999 V2000
  -28.0162   -0.8135   28.8779 C   0  0  0  0  0  0  0  0  0  0  0  0
  -28.4690   -0.7850   29.8287 C   0  0  0  0  0  0  0  0  0  0  0  0
  -26.5455   -0.8762   28.8500 C   0  0  0  0  0  0  0  0  0  0  0  0
  -25.8974   -0.8267   29.8894 C   0  0  0  0  0  0  0  0  0  0  0  0
  -30.0003   -0.7688   29.9284 C   0  0  0  0  0  0  0  0  0  0  0  0
  -26.5207   -0.8182   31.1574 C   0  0  0  0  0  0  0  0  0  0  0  0
  -27.9055   -0.8072   31.1602 C   0  0  0  0  0  0  0  0  0  0  0  0
  -30.5872    0.0088   30.7550 O   0  0  0  0  0  0  0  0  0  0  0  0
  -30.6310   -1.5297   29.1242 O   0  0  0  0  0  0  0  0  0  0  0  0
  -24.3598   -0.8572   29.9378 C   0  0  0  0  0  0  0  0  0  0  0  0
  -23.6459   -1.5326   30.3341 C   0  0  0  0  0  0  0  0  0  0  0  0
  -23.7741    0.3254   29.1588 C   0  0  0  0  0  0  0  0  0  0  0  0
  -22.3807    0.3852   29.0356 C   0  0  0  0  0  0  0  0  0  0  0  0
  -22.1956   -1.5901   30.3898 C   0  0  0  0  0  0  0  0  0  0  0  0
  -21.6017   -0.5483   29.6669 C   0  0  0  0  0  0  0  0  0  0  0  0
  2  5  1  0
  5  8  2  0
  5  9  1  0
  4 10  1  0
 10 11  2  0
 11 14  1  0
 14 15  2  0
 15 13  1  0
 13 12  2  0
 12 10  1  0
  1  2  2  0
  2  7  1  0
  7  6  2  0
  6  4  1  0
  4  3  2  0
  3  1  1  0
M  END

$$$$
