No_4393-gen_results/8p0m/2024-11-27-11-27-31/
     RDKit          3D

 15 16  0  0  0  0  0  0  0  0999 V2000
  -28.0162   -0.8135   28.8779 C   0  0  0  0  0  0  0  0  0  0  0  0
  -27.0636   -0.1190   28.6079 C   0  0  0  0  0  0  0  0  0  0  0  0
  -26.9716    0.7139   27.5060 C   0  0  0  0  0  0  0  0  0  0  0  0
  -28.1053    0.7744   26.6421 C   0  0  0  0  0  0  0  0  0  0  0  0
  -29.2008    0.1044   27.0527 C   0  0  0  0  0  0  0  0  0  0  0  0
  -29.2096   -0.6029   28.1853 C   0  0  0  0  0  0  0  0  0  0  0  0
  -30.2851    0.2916   26.0027 C   0  0  0  0  0  0  0  0  0  0  0  0
  -30.1430    0.5666   24.8680 N   0  0  0  0  0  0  0  0  0  0  0  0
  -31.4507   -0.1468   26.4238 O   0  0  0  0  0  0  0  0  0  0  0  0
  -25.7161   -0.2236   29.4479 C   0  0  0  0  0  0  0  0  0  0  0  0
  -25.3089    0.7400   29.9272 O   0  0  0  0  0  0  0  0  0  0  0  0
  -25.3746   -1.4149   29.8404 O   0  0  0  0  0  0  0  0  0  0  0  0
  -31.2141    0.6233   23.8382 C   0  0  0  0  0  0  0  0  0  0  0  0
  -28.8702    1.0289   24.2086 C   0  0  0  0  0  0  0  0  0  0  0  0
  -27.7922    1.1735   25.2555 C   0  0  0  0  0  0  0  0  0  0  0  0
  5  7  1  0
  7  8  1  0
  7  9  2  0
  2 10  1  0
 10 11  2  0
 10 12  1  0
  8 13  1  0
  8 14  1  0
  4 15  1  0
 15 14  1  0
  1  2  2  0
  2  3  1  0
  3  4  2  0
  4  5  1  0
  5  6  2  0
  6  1  1  0
M  END

$$$$
