No_4840-gen_results/8p0m/2024-11-27-11-27-31/
     RDKit          3D

 16 18  0  0  0  0  0  0  0  0999 V2000
  -28.0162   -0.8135   28.8779 C   0  0  0  0  0  0  0  0  0  0  0  0
  -28.4690   -0.7850   29.8287 C   0  0  0  0  0  0  0  0  0  0  0  0
  -27.1356    0.2359   28.5352 C   0  0  0  0  0  0  0  0  0  0  0  0
  -26.3351    0.2900   27.2835 C   0  0  0  0  0  0  0  0  0  0  0  0
  -28.3692    0.1957   30.9236 C   0  0  0  0  0  0  0  0  0  0  0  0
  -27.5158    1.2655   30.6540 C   0  0  0  0  0  0  0  0  0  0  0  0
  -26.8411    1.2942   29.4761 C   0  0  0  0  0  0  0  0  0  0  0  0
  -25.3615    0.7752   26.9671 C   0  0  0  0  0  0  0  0  0  0  0  0
  -24.8304    1.7671   28.0166 C   0  0  0  0  0  0  0  0  0  0  0  0
  -25.5668    2.0017   29.2019 C   0  0  0  0  0  0  0  0  0  0  0  0
  -23.6197    2.6089   27.6649 C   0  0  0  0  0  0  0  0  0  0  0  0
  -22.9255    2.2853   26.5802 N   0  0  0  0  0  0  0  0  0  0  0  0
  -23.4387    1.4588   25.6066 C   0  0  0  0  0  0  0  0  0  0  0  0
  -24.5794    0.7168   25.8243 C   0  0  0  0  0  0  0  0  0  0  0  0
  -24.6942    2.1651   30.3253 C   0  0  0  0  0  0  0  0  0  0  0  0
  -24.6338    1.0119   31.2451 C   0  0  0  0  0  0  0  0  0  0  0  0
 10 15  1  0
 15 16  1  0
  9 11  2  0
 11 12  1  0
 12 13  2  0
 13 14  1  0
 14  8  2  0
  1  2  2  0
  2  5  1  0
  5  6  2  0
  6  7  1  0
  3  1  1  0
  3  4  2  0
  4  8  1  0
  8  9  1  0
  9 10  1  0
 10  7  2  0
  7  3  1  0
M  END

$$$$
