No_403-gen_results/8p0m/2024-11-27-11-27-31/
     RDKit          3D

 14 13  0  0  0  0  0  0  0  0999 V2000
  -28.0162   -0.8135   28.8779 C   0  0  0  0  0  0  0  0  0  0  0  0
  -28.4690   -0.7850   29.8287 C   0  0  0  0  0  0  0  0  0  0  0  0
  -27.4314    0.3375   28.8033 F   0  0  0  0  0  0  0  0  0  0  0  0
  -27.9646   -1.4114   30.6864 O   0  0  0  0  0  0  0  0  0  0  0  0
  -26.9674   -1.6705   28.7038 F   0  0  0  0  0  0  0  0  0  0  0  0
  -29.9152   -1.3566   29.8870 O   0  0  0  0  0  0  0  0  0  0  0  0
  -28.6888   -0.7251   27.7091 F   0  0  0  0  0  0  0  0  0  0  0  0
  -30.9790   -0.6094   29.6545 C   0  0  0  0  0  0  0  0  0  0  0  0
  -31.1064    0.3602   29.9424 C   0  0  0  0  0  0  0  0  0  0  0  0
  -31.9670    1.3508   29.1922 C   0  0  0  0  0  0  0  0  0  0  0  0
  -32.1041    2.7055   29.6197 C   0  0  0  0  0  0  0  0  0  0  0  0
  -32.8632    3.6570   28.8814 C   0  0  0  0  0  0  0  0  0  0  0  0
  -33.4782    3.2117   27.6931 C   0  0  0  0  0  0  0  0  0  0  0  0
  -34.2189    4.0843   26.9482 C   0  0  0  0  0  0  0  0  0  0  0  0
  1  2  1  0
  1  3  1  0
  2  4  1  0
  1  5  1  0
  2  6  1  0
  1  7  1  0
  6  8  1  0
  8  9  2  3
  9 10  1  0
 10 11  2  3
 11 12  1  0
 12 13  2  3
 13 14  1  0
M  END

$$$$
