No_409-gen_results/8p0m/2024-11-27-11-27-31/
     RDKit          3D

 10 10  0  0  0  0  0  0  0  0999 V2000
  -28.0162   -0.8135   28.8779 C   0  0  0  0  0  0  0  0  0  0  0  0
  -28.4690   -0.7850   29.8287 C   0  0  0  0  0  0  0  0  0  0  0  0
  -27.0871    0.2903   28.6377 C   0  0  0  0  0  0  0  0  0  0  0  0
  -26.0238    0.3644   29.2526 C   0  0  0  0  0  0  0  0  0  0  0  0
  -26.2460    0.4334   30.7986 C   0  0  0  0  0  0  0  0  0  0  0  0
  -27.6898   -0.6744   31.1374 N   0  0  0  0  0  0  0  0  0  0  0  0
  -27.1801    1.0888   27.3840 C   0  0  0  0  0  0  0  0  0  0  0  0
  -26.8079    2.1757   27.2782 C   0  0  0  0  0  0  0  0  0  0  0  0
  -26.2297    2.9456   26.9872 C   0  0  0  0  0  0  0  0  0  0  0  0
  -26.4144    3.9988   26.1246 C   0  0  0  0  0  0  0  0  0  0  0  0
  1  2  1  0
  1  3  1  0
  3  4  1  0
  4  5  1  0
  2  6  1  0
  5  6  1  0
  3  7  1  0
  7  8  2  3
  8  9  1  0
  9 10  1  0
M  END

$$$$
