No_4419-gen_results/8p0m/2024-11-27-11-27-31/
     RDKit          3D

 11 11  0  0  0  0  0  0  0  0999 V2000
  -28.1229   -1.3353   28.4874 O   0  0  0  0  0  0  0  0  0  0  0  0
  -27.4806   -0.4044   28.7094 C   0  0  0  0  0  0  0  0  0  0  0  0
  -27.1904    0.2460   29.5268 C   0  0  0  0  0  0  0  0  0  0  0  0
  -26.6872   -0.0001   27.4423 N   0  0  0  0  0  0  0  0  0  0  0  0
  -27.6511    0.1259   30.8799 C   0  0  0  0  0  0  0  0  0  0  0  0
  -26.8882   -0.4289   26.2603 C   0  0  0  0  0  0  0  0  0  0  0  0
  -26.1307    1.4289   29.5753 C   0  0  0  0  0  0  0  0  0  0  0  0
  -25.5527    1.8450   28.4503 C   0  0  0  0  0  0  0  0  0  0  0  0
  -25.7862    1.1360   27.3421 C   0  0  0  0  0  0  0  0  0  0  0  0
  -27.1488    0.2061   31.9140 C   0  0  0  0  0  0  0  0  0  0  0  0
  -26.2894    1.4511   32.1119 C   0  0  0  0  0  0  0  0  0  0  0  0
  1  2  2  0
  2  3  1  0
  2  4  1  0
  3  5  1  0
  4  6  1  0
  3  7  1  0
  4  9  1  0
  8  9  1  0
  5 10  1  0
 10 11  2  0
  7  8  1  0
M  END

$$$$
