No_4588-gen_results/8p0m/2024-11-27-11-27-31/
     RDKit          3D

 14 15  0  0  0  0  0  0  0  0999 V2000
  -28.1229   -1.3353   28.4874 O   0  0  0  0  0  0  0  0  0  0  0  0
  -27.0637   -0.8242   28.8687 C   0  0  0  0  0  0  0  0  0  0  0  0
  -26.4017   -0.0623   28.6224 C   0  0  0  0  0  0  0  0  0  0  0  0
  -26.3805   -1.7991   29.9619 N   0  0  0  0  0  0  0  0  0  0  0  0
  -26.7771    1.0571   27.7896 C   0  0  0  0  0  0  0  0  0  0  0  0
  -25.9129    1.9788   27.2177 C   0  0  0  0  0  0  0  0  0  0  0  0
  -26.2343    2.9515   26.2803 C   0  0  0  0  0  0  0  0  0  0  0  0
  -25.1209   -1.6317   30.3954 C   0  0  0  0  0  0  0  0  0  0  0  0
  -25.3177    3.9201   25.8453 C   0  0  0  0  0  0  0  0  0  0  0  0
  -23.9180    3.6383   26.1591 C   0  0  0  0  0  0  0  0  0  0  0  0
  -23.5269    2.6143   26.9250 C   0  0  0  0  0  0  0  0  0  0  0  0
  -24.4719    1.7364   27.4845 C   0  0  0  0  0  0  0  0  0  0  0  0
  -24.4490   -0.5405   30.0109 C   0  0  0  0  0  0  0  0  0  0  0  0
  -24.9427    0.3283   29.1711 C   0  0  0  0  0  0  0  0  0  0  0  0
  1  2  2  0
  2  3  1  0
  2  4  1  0
  3  5  1  0
  5  6  2  3
  6  7  1  0
  7  9  1  0
  9 10  1  0
 10 11  1  0
  6 12  1  0
 11 12  1  0
  8 13  1  0
  3 14  1  0
 14 13  1  0
  8  4  1  0
M  END

$$$$
