No_4361-gen_results/8p0m/2024-11-27-11-27-31/
     RDKit          3D

 35 38  0  0  0  0  0  0  0  0999 V2000
  -28.0162   -0.8135   28.8779 C   0  0  0  0  0  0  0  0  0  0  0  0
  -28.4690   -0.7850   29.8287 C   0  0  0  0  0  0  0  0  0  0  0  0
  -28.1960    0.3478   28.0550 C   0  0  0  0  0  0  0  0  0  0  0  0
  -29.0191    1.3501   28.3782 C   0  0  0  0  0  0  0  0  0  0  0  0
  -29.6249    1.2683   29.6012 C   0  0  0  0  0  0  0  0  0  0  0  0
  -29.3791    0.1470   30.3923 C   0  0  0  0  0  0  0  0  0  0  0  0
  -27.4550    0.3821   26.7102 C   0  0  0  0  0  0  0  0  0  0  0  0
  -26.0937    0.3818   26.7802 N   0  0  0  0  0  0  0  0  0  0  0  0
  -25.2884    1.0921   26.0267 C   0  0  0  0  0  0  0  0  0  0  0  0
  -23.8687    1.1787   26.3948 C   0  0  0  0  0  0  0  0  0  0  0  0
  -23.4818    0.5816   27.5575 C   0  0  0  0  0  0  0  0  0  0  0  0
  -24.3364   -0.2273   28.3241 C   0  0  0  0  0  0  0  0  0  0  0  0
  -25.4667   -0.0971   28.1296 C   0  0  0  0  0  0  0  0  0  0  0  0
  -22.0871    0.7144   28.1619 C   0  0  0  0  0  0  0  0  0  0  0  0
  -21.6665   -0.1732   29.0418 N   0  0  0  0  0  0  0  0  0  0  0  0
  -21.2865    1.6613   27.6658 N   0  0  0  0  0  0  0  0  0  0  0  0
  -28.0042    0.3062   25.6525 O   0  0  0  0  0  0  0  0  0  0  0  0
  -30.6358    2.3247   30.0017 C   0  0  0  0  0  0  0  0  0  0  0  0
  -31.1937    2.9581   29.3081 C   0  0  0  0  0  0  0  0  0  0  0  0
  -32.1485    4.0536   29.6820 C   0  0  0  0  0  0  0  0  0  0  0  0
  -32.7960    4.9191   28.7931 C   0  0  0  0  0  0  0  0  0  0  0  0
  -32.5352    4.6905   27.4160 C   0  0  0  0  0  0  0  0  0  0  0  0
  -31.6483    3.7511   26.9509 C   0  0  0  0  0  0  0  0  0  0  0  0
  -31.0193    3.0061   27.7983 C   0  0  0  0  0  0  0  0  0  0  0  0
  -29.6596    2.2437   27.3613 C   0  0  0  0  0  0  0  0  0  0  0  0
  -28.2271   -1.9792   30.9057 C   0  0  0  0  0  0  0  0  0  0  0  0
  -27.7398   -3.0290   30.4237 N   0  0  0  0  0  0  0  0  0  0  0  0
  -26.4997   -3.1155   29.9301 C   0  0  0  0  0  0  0  0  0  0  0  0
  -26.0826   -4.3688   29.5280 N   0  0  0  0  0  0  0  0  0  0  0  0
  -28.4937   -4.2040   30.4413 C   0  0  0  0  0  0  0  0  0  0  0  0
  -24.8134   -4.5803   29.0271 C   0  0  0  0  0  0  0  0  0  0  0  0
  -29.7519   -4.0528   31.1596 C   0  0  0  0  0  0  0  0  0  0  0  0
  -30.7129   -4.2130   30.5558 C   0  0  0  0  0  0  0  0  0  0  0  0
  -31.9833   -3.8335   31.0839 C   0  0  0  0  0  0  0  0  0  0  0  0
  -32.0835   -3.4423   32.4292 C   0  0  0  0  0  0  0  0  0  0  0  0
  3  7  1  0
  7  8  1  0
  8  9  1  0
 10 11  1  0
  8 13  1  0
 12 13  1  0
 11 14  1  0
 14 15  2  0
 14 16  1  0
  7 17  2  0
  2 26  1  0
 26 27  1  0
 27 28  1  0
 28 29  2  3
 27 30  1  0
 29 31  1  0
 30 32  1  0
 32 33  1  0
 33 34  2  3
 34 35  1  0
  9 10  1  0
 11 12  1  0
  1  2  2  0
  2  6  1  0
  6  5  2  0
  4  3  2  0
  3  1  1  0
  4  5  1  0
  5 18  1  0
 18 19  2  0
 24 25  2  0
 25  4  1  0
 19 20  1  0
 20 21  2  0
 21 22  1  0
 22 23  2  0
 23 24  1  0
 24 19  1  0
M  END

$$$$
