No_4473-gen_results/8p0m/2024-11-27-11-27-31/
     RDKit          3D

 26 30  0  0  0  0  0  0  0  0999 V2000
  -28.0162   -0.8135   28.8779 C   0  0  0  0  0  0  0  0  0  0  0  0
  -27.0636   -0.1190   28.6079 C   0  0  0  0  0  0  0  0  0  0  0  0
  -25.7647   -0.3897   29.0360 C   0  0  0  0  0  0  0  0  0  0  0  0
  -25.5296   -1.5302   29.9014 C   0  0  0  0  0  0  0  0  0  0  0  0
  -26.6577   -2.2915   30.2035 C   0  0  0  0  0  0  0  0  0  0  0  0
  -27.8548   -1.9555   29.7630 C   0  0  0  0  0  0  0  0  0  0  0  0
  -24.5441    0.4126   28.7379 C   0  0  0  0  0  0  0  0  0  0  0  0
  -23.3231    0.0476   29.0499 C   0  0  0  0  0  0  0  0  0  0  0  0
  -22.1997    0.8411   28.7194 C   0  0  0  0  0  0  0  0  0  0  0  0
  -22.3632    1.8394   27.7172 C   0  0  0  0  0  0  0  0  0  0  0  0
  -24.6043    1.5165   27.8119 C   0  0  0  0  0  0  0  0  0  0  0  0
  -23.5582    2.1898   27.3588 C   0  0  0  0  0  0  0  0  0  0  0  0
  -29.0212   -2.7832   30.1825 C   0  0  0  0  0  0  0  0  0  0  0  0
  -29.3189   -2.7229   31.4101 N   0  0  0  0  0  0  0  0  0  0  0  0
  -29.5317   -1.7033   32.0271 C   0  0  0  0  0  0  0  0  0  0  0  0
  -29.8414   -0.5989   31.5393 C   0  0  0  0  0  0  0  0  0  0  0  0
  -30.0472    0.6217   32.3295 C   0  0  0  0  0  0  0  0  0  0  0  0
  -30.3376    1.8612   31.7015 C   0  0  0  0  0  0  0  0  0  0  0  0
  -30.4839    1.8909   30.3108 C   0  0  0  0  0  0  0  0  0  0  0  0
  -30.4784    0.7557   29.5925 C   0  0  0  0  0  0  0  0  0  0  0  0
  -30.0971   -0.3935   30.1791 C   0  0  0  0  0  0  0  0  0  0  0  0
  -28.7049   -0.8118   29.3747 C   0  0  0  0  0  0  0  0  0  0  0  0
  -28.7444   -0.1457   28.3770 Br  0  0  0  0  0  0  0  0  0  0  0  0
  -26.7187    1.0263   27.4501 C   0  0  0  0  0  0  0  0  0  0  0  0
  -27.7076    1.6727   26.7084 C   0  0  0  0  0  0  0  0  0  0  0  0
  -25.4816    1.5650   27.2855 C   0  0  0  0  0  0  0  0  0  0  0  0
  3  7  1  0
  6 13  1  0
 13 14  1  0
 14 15  1  0
  1 22  1  0
 21 22  1  0
 22 23  1  0
  2 24  1  0
 24 25  1  0
 11 26  1  0
 24 26  1  0
 15 16  1  0
  7  8  2  0
  8  9  1  0
  9 10  2  0
 10 12  1  0
 12 11  2  0
 11  7  1  0
  1  2  2  0
  2  3  1  0
  3  4  2  0
  4  5  1  0
  5  6  2  0
  6  1  1  0
 16 17  2  0
 17 18  1  0
 18 19  2  0
 19 20  1  0
 20 21  2  0
 21 16  1  0
M  END

$$$$
