No_424-gen_results/8p0m/2024-11-27-11-27-31/
     RDKit          3D

 13 14  0  0  0  0  0  0  0  0999 V2000
  -28.0162   -0.8135   28.8779 C   0  0  0  0  0  0  0  0  0  0  0  0
  -28.4690   -0.7850   29.8287 C   0  0  0  0  0  0  0  0  0  0  0  0
  -26.5455   -0.8762   28.8500 C   0  0  0  0  0  0  0  0  0  0  0  0
  -25.8041   -1.0324   30.0571 C   0  0  0  0  0  0  0  0  0  0  0  0
  -27.9437   -0.9869   31.2075 C   0  0  0  0  0  0  0  0  0  0  0  0
  -26.5825   -1.0386   31.2231 C   0  0  0  0  0  0  0  0  0  0  0  0
  -30.4495   -0.7126   29.8904 Br  0  0  0  0  0  0  0  0  0  0  0  0
  -24.3608   -1.1188   30.0632 C   0  0  0  0  0  0  0  0  0  0  0  0
  -23.6874    0.1366   30.0274 C   0  0  0  0  0  0  0  0  0  0  0  0
  -22.4215    0.2456   29.3646 C   0  0  0  0  0  0  0  0  0  0  0  0
  -21.7869   -0.9918   29.0312 C   0  0  0  0  0  0  0  0  0  0  0  0
  -23.6906   -2.2680   29.5630 C   0  0  0  0  0  0  0  0  0  0  0  0
  -22.4393   -2.1185   29.0161 N   0  0  0  0  0  0  0  0  0  0  0  0
  2  7  1  0
  4  8  1  0
  1  2  2  0
  2  5  1  0
  5  6  2  0
  6  4  1  0
  4  3  2  0
  3  1  1  0
  8  9  2  0
  9 10  1  0
 10 11  2  0
 11 13  1  0
 13 12  2  0
 12  8  1  0
M  END

$$$$
