No_4647-gen_results/8p0m/2024-11-27-11-27-31/
     RDKit          3D

 35 38  0  0  0  0  0  0  0  0999 V2000
  -28.0162   -0.8135   28.8779 C   0  0  0  0  0  0  0  0  0  0  0  0
  -28.4690   -0.7850   29.8287 C   0  0  0  0  0  0  0  0  0  0  0  0
  -27.1356    0.2359   28.5352 C   0  0  0  0  0  0  0  0  0  0  0  0
  -26.8745    1.2825   29.3982 C   0  0  0  0  0  0  0  0  0  0  0  0
  -28.3613    0.1987   30.9244 C   0  0  0  0  0  0  0  0  0  0  0  0
  -27.5277    1.2234   30.6356 C   0  0  0  0  0  0  0  0  0  0  0  0
  -26.3987    0.2949   27.2279 C   0  0  0  0  0  0  0  0  0  0  0  0
  -25.0392    0.2356   27.3538 C   0  0  0  0  0  0  0  0  0  0  0  0
  -24.2585    0.8274   26.2566 C   0  0  0  0  0  0  0  0  0  0  0  0
  -24.1535    1.8650   26.0705 C   0  0  0  0  0  0  0  0  0  0  0  0
  -24.7081    2.9307   26.9757 C   0  0  0  0  0  0  0  0  0  0  0  0
  -25.6544    3.5779   27.0939 C   0  0  0  0  0  0  0  0  0  0  0  0
  -26.6680    3.5708   26.0567 C   0  0  0  0  0  0  0  0  0  0  0  0
  -27.9235    4.1990   26.2187 C   0  0  0  0  0  0  0  0  0  0  0  0
  -28.1208    4.8589   27.4667 C   0  0  0  0  0  0  0  0  0  0  0  0
  -26.0447    4.3582   28.2781 C   0  0  0  0  0  0  0  0  0  0  0  0
  -27.1701    5.0210   28.4407 C   0  0  0  0  0  0  0  0  0  0  0  0
  -27.1293    0.3115   26.0586 C   0  0  0  0  0  0  0  0  0  0  0  0
  -23.6043    3.2174   27.9615 O   0  0  0  0  0  0  0  0  0  0  0  0
  -28.1192    0.5829   25.6725 C   0  0  0  0  0  0  0  0  0  0  0  0
  -28.7138    0.4256   24.3907 C   0  0  0  0  0  0  0  0  0  0  0  0
  -26.3772   -0.2628   24.8640 C   0  0  0  0  0  0  0  0  0  0  0  0
  -26.9367   -0.4265   23.7151 N   0  0  0  0  0  0  0  0  0  0  0  0
  -28.1458   -0.0412   23.4640 C   0  0  0  0  0  0  0  0  0  0  0  0
  -30.2380    0.8396   24.3809 C   0  0  0  0  0  0  0  0  0  0  0  0
  -30.5284    2.0654   24.6619 C   0  0  0  0  0  0  0  0  0  0  0  0
  -31.9208    2.5512   24.5975 C   0  0  0  0  0  0  0  0  0  0  0  0
  -32.8727    1.5648   24.2867 C   0  0  0  0  0  0  0  0  0  0  0  0
  -31.1492   -0.1750   24.2161 C   0  0  0  0  0  0  0  0  0  0  0  0
  -32.5168    0.2305   24.1206 C   0  0  0  0  0  0  0  0  0  0  0  0
  -29.6617    5.7582   27.4726 P   0  0  0  0  0  0  0  0  0  0  0  0
  -29.9393    6.0212   28.7990 O   0  0  0  0  0  0  0  0  0  0  0  0
  -29.3085    7.0097   26.7293 O   0  0  0  0  0  0  0  0  0  0  0  0
  -30.6529    4.8901   26.7971 O   0  0  0  0  0  0  0  0  0  0  0  0
  -27.2897    2.3306   31.6538 C   0  0  0  0  0  0  0  0  0  0  0  0
  3  7  1  0
  7  8  2  3
  8  9  1  0
  9 10  2  3
 10 11  1  0
 11 12  1  0
  7 18  1  0
 11 19  2  0
 21 25  1  0
 15 31  1  0
 31 32  1  0
 31 33  2  0
 31 34  1  0
  6 35  1  0
 12 13  2  0
 13 14  1  0
 14 15  2  0
 15 17  1  0
 17 16  2  0
 16 12  1  0
 18 20  2  0
 20 21  1  0
 21 24  2  0
 24 23  1  0
 23 22  2  0
 22 18  1  0
 25 26  2  0
 26 27  1  0
 27 28  2  0
 28 30  1  0
 30 29  2  0
 29 25  1  0
  1  2  2  0
  2  5  1  0
  5  6  2  0
  6  4  1  0
  4  3  2  0
  3  1  1  0
M  END

$$$$
