No_4413-gen_results/8p0m/2024-11-27-11-27-31/
     RDKit          3D

 35 39  0  0  0  0  0  0  0  0999 V2000
  -28.0544   -1.0498   28.7246 N   0  0  0  0  0  0  0  0  0  0  0  0
  -28.6544   -0.5669   29.5076 C   0  0  0  0  0  0  0  0  0  0  0  0
  -26.7777   -0.5807   28.6029 C   0  0  0  0  0  0  0  0  0  0  0  0
  -26.3388    0.2287   29.2332 C   0  0  0  0  0  0  0  0  0  0  0  0
  -28.3919    0.4213   30.4208 N   0  0  0  0  0  0  0  0  0  0  0  0
  -27.0830    0.9001   30.2811 C   0  0  0  0  0  0  0  0  0  0  0  0
  -29.9328   -1.0661   29.6839 O   0  0  0  0  0  0  0  0  0  0  0  0
  -24.8830    0.8005   29.1547 C   0  0  0  0  0  0  0  0  0  0  0  0
  -24.3596    1.5983   29.8195 C   0  0  0  0  0  0  0  0  0  0  0  0
  -25.2543    2.3003   30.8599 C   0  0  0  0  0  0  0  0  0  0  0  0
  -26.5169    1.8834   31.0864 C   0  0  0  0  0  0  0  0  0  0  0  0
  -24.0007    0.1816   28.1159 C   0  0  0  0  0  0  0  0  0  0  0  0
  -22.6618    0.6440   28.1328 C   0  0  0  0  0  0  0  0  0  0  0  0
  -22.1699    1.5548   28.8919 C   0  0  0  0  0  0  0  0  0  0  0  0
  -22.9816    2.1233   29.8004 C   0  0  0  0  0  0  0  0  0  0  0  0
  -27.3393    2.5302   32.1536 C   0  0  0  0  0  0  0  0  0  0  0  0
  -27.0494    3.7823   32.4870 C   0  0  0  0  0  0  0  0  0  0  0  0
  -27.7935    4.4558   33.5384 C   0  0  0  0  0  0  0  0  0  0  0  0
  -27.5469    5.7925   33.8812 C   0  0  0  0  0  0  0  0  0  0  0  0
  -26.4655    6.4738   33.3303 C   0  0  0  0  0  0  0  0  0  0  0  0
  -25.6525    5.8090   32.3620 C   0  0  0  0  0  0  0  0  0  0  0  0
  -25.9254    4.5320   32.0271 C   0  0  0  0  0  0  0  0  0  0  0  0
  -25.0357    3.7223   31.1219 C   0  0  0  0  0  0  0  0  0  0  0  0
  -24.4533    6.5383   31.8654 C   0  0  0  0  0  0  0  0  0  0  0  0
  -24.7397    7.6961   31.1358 N   0  0  0  0  0  0  0  0  0  0  0  0
  -24.7690    8.1410   30.1693 C   0  0  0  0  0  0  0  0  0  0  0  0
  -24.5371    7.4077   29.2230 F   0  0  0  0  0  0  0  0  0  0  0  0
  -24.5486    9.3820   29.8646 N   0  0  0  0  0  0  0  0  0  0  0  0
  -28.9525    3.7768   34.1432 C   0  0  0  0  0  0  0  0  0  0  0  0
  -29.0721    2.8405   34.5549 N   0  0  0  0  0  0  0  0  0  0  0  0
  -28.2894    2.4056   35.5969 C   0  0  0  0  0  0  0  0  0  0  0  0
  -29.9201    1.7755   34.0639 C   0  0  0  0  0  0  0  0  0  0  0  0
  -30.0681    4.5809   33.9747 O   0  0  0  0  0  0  0  0  0  0  0  0
  -29.6142    0.4324   34.3325 C   0  0  0  0  0  0  0  0  0  0  0  0
  -27.9624    1.0154   35.9439 C   0  0  0  0  0  0  0  0  0  0  0  0
  1  2  1  0
  3  4  1  0
  2  5  1  0
  2  7  2  0
 21 24  1  0
 24 25  1  0
 25 26  1  0
 26 27  1  0
 26 28  1  0
 18 29  1  0
 29 30  1  0
 30 31  1  0
 30 32  1  0
 29 33  2  0
 32 34  2  0
 31 35  2  0
  1  3  1  0
  6  5  1  0
  9 15  2  0
 15 14  1  0
 14 13  2  0
 13 12  1  0
 12  8  2  0
  4  6  2  0
  6 11  1  0
 10  9  1  0
  9  8  1  0
  8  4  1  0
 17 18  1  0
 18 19  2  0
 19 20  1  0
 20 21  2  0
 21 22  1  0
 10 11  2  0
 11 16  1  0
 16 17  2  0
 17 22  1  0
 22 23  2  0
 23 10  1  0
M  END

$$$$
