No_4563-gen_results/8p0m/2024-11-27-11-27-31/
     RDKit          3D

 19 21  0  0  0  0  0  0  0  0999 V2000
  -28.1493   -0.8198   28.9079 Cl  0  0  0  0  0  0  0  0  0  0  0  0
  -26.9116   -0.0797   28.9452 C   0  0  0  0  0  0  0  0  0  0  0  0
  -26.0490   -0.0718   27.8591 C   0  0  0  0  0  0  0  0  0  0  0  0
  -25.4195    0.5139   27.2810 C   0  0  0  0  0  0  0  0  0  0  0  0
  -24.6713    1.4205   27.4310 C   0  0  0  0  0  0  0  0  0  0  0  0
  -24.2722    2.0040   28.1425 C   0  0  0  0  0  0  0  0  0  0  0  0
  -24.9561    1.8506   29.5518 C   0  0  0  0  0  0  0  0  0  0  0  0
  -26.0377    1.0556   29.9280 C   0  0  0  0  0  0  0  0  0  0  0  0
  -23.7534    1.7195   26.1644 N   0  0  0  0  0  0  0  0  0  0  0  0
  -22.5465    1.9169   26.4627 C   0  0  0  0  0  0  0  0  0  0  0  0
  -22.1694    2.4914   27.7108 C   0  0  0  0  0  0  0  0  0  0  0  0
  -22.9052    2.5791   28.5981 C   0  0  0  0  0  0  0  0  0  0  0  0
  -26.7849    1.1419   31.2426 C   0  0  0  0  0  0  0  0  0  0  0  0
  -27.9086    1.8620   31.2216 C   0  0  0  0  0  0  0  0  0  0  0  0
  -28.1506    2.8831   30.6622 C   0  0  0  0  0  0  0  0  0  0  0  0
  -29.4450    3.6083   30.7021 C   0  0  0  0  0  0  0  0  0  0  0  0
  -30.4224    3.0139   31.4774 C   0  0  0  0  0  0  0  0  0  0  0  0
  -30.1790    1.8780   32.1733 C   0  0  0  0  0  0  0  0  0  0  0  0
  -28.9498    1.2558   32.1472 C   0  0  0  0  0  0  0  0  0  0  0  0
  1  2  1  0
  2  3  2  0
  3  4  1  0
  2  8  1  0
  7  8  1  0
  8 13  1  0
 13 14  1  0
  4  5  1  0
  7  6  1  0
 14 15  2  0
 15 16  1  0
 16 17  2  0
 17 18  1  0
 18 19  2  0
 19 14  1  0
  5  6  2  0
  6 12  1  0
 12 11  2  0
 11 10  1  0
 10  9  2  0
  9  5  1  0
M  END

$$$$
