No_4891-gen_results/8p0m/2024-11-27-11-27-31/
     RDKit          3D

 26 29  0  0  0  0  0  0  0  0999 V2000
  -28.0162   -0.8135   28.8779 C   0  0  0  0  0  0  0  0  0  0  0  0
  -27.0636   -0.1190   28.6079 C   0  0  0  0  0  0  0  0  0  0  0  0
  -25.7647   -0.3897   29.0360 C   0  0  0  0  0  0  0  0  0  0  0  0
  -24.5516    0.4058   28.7646 C   0  0  0  0  0  0  0  0  0  0  0  0
  -23.2300    0.1178   29.2575 C   0  0  0  0  0  0  0  0  0  0  0  0
  -23.0942   -1.1309   29.8730 C   0  0  0  0  0  0  0  0  0  0  0  0
  -27.7980   -1.9341   29.8560 C   0  0  0  0  0  0  0  0  0  0  0  0
  -26.5420   -2.3269   30.2580 C   0  0  0  0  0  0  0  0  0  0  0  0
  -25.4514   -1.5516   29.9079 C   0  0  0  0  0  0  0  0  0  0  0  0
  -24.1562   -1.9097   30.2809 C   0  0  0  0  0  0  0  0  0  0  0  0
  -24.6450    1.6582   27.9464 C   0  0  0  0  0  0  0  0  0  0  0  0
  -24.8958    2.7559   28.5615 C   0  0  0  0  0  0  0  0  0  0  0  0
  -25.1728    3.9344   27.8439 C   0  0  0  0  0  0  0  0  0  0  0  0
  -23.9675    1.6906   26.7066 C   0  0  0  0  0  0  0  0  0  0  0  0
  -24.1372    2.7505   26.0218 C   0  0  0  0  0  0  0  0  0  0  0  0
  -24.6075    3.9868   26.5068 C   0  0  0  0  0  0  0  0  0  0  0  0
  -25.4599    2.8518   30.0006 C   0  0  0  0  0  0  0  0  0  0  0  0
  -26.4052    2.3610   30.3179 O   0  0  0  0  0  0  0  0  0  0  0  0
  -24.8994    3.8017   30.8066 O   0  0  0  0  0  0  0  0  0  0  0  0
  -28.9015   -2.6705   30.2044 O   0  0  0  0  0  0  0  0  0  0  0  0
  -29.1863   -2.8785   31.5469 C   0  0  0  0  0  0  0  0  0  0  0  0
  -30.5812   -2.8037   31.8332 C   0  0  0  0  0  0  0  0  0  0  0  0
  -30.9248   -2.9956   33.0367 C   0  0  0  0  0  0  0  0  0  0  0  0
  -29.9850   -3.2943   34.1241 C   0  0  0  0  0  0  0  0  0  0  0  0
  -28.6753   -3.3684   33.7698 C   0  0  0  0  0  0  0  0  0  0  0  0
  -28.2521   -3.1578   32.5096 C   0  0  0  0  0  0  0  0  0  0  0  0
  4 11  1  0
 12 17  1  0
 17 18  2  0
 17 19  1  0
  7 20  1  0
 20 21  1  0
 21 22  2  0
 22 23  1  0
 23 24  2  0
 24 25  1  0
 25 26  2  0
 26 21  1  0
  1  2  2  0
  2  3  1  0
  9  8  1  0
  8  7  2  0
  7  1  1  0
 11 12  2  0
 12 13  1  0
 13 16  2  0
 16 15  1  0
 15 14  2  0
 14 11  1  0
  3  4  2  0
  4  5  1  0
  5  6  2  0
  6 10  1  0
 10  9  2  0
  9  3  1  0
M  END

$$$$
