No_4402-gen_results/8p0m/2024-11-27-11-27-31/
     RDKit          3D

 23 25  0  0  0  0  0  0  0  0999 V2000
  -28.0162   -0.8135   28.8779 C   0  0  0  0  0  0  0  0  0  0  0  0
  -27.0636   -0.1189   28.6079 C   0  0  0  0  0  0  0  0  0  0  0  0
  -25.7923   -0.4302   29.0761 C   0  0  0  0  0  0  0  0  0  0  0  0
  -25.5756   -1.5654   29.9363 C   0  0  0  0  0  0  0  0  0  0  0  0
  -26.7354   -2.3004   30.2173 C   0  0  0  0  0  0  0  0  0  0  0  0
  -27.9184   -1.9537   29.7629 C   0  0  0  0  0  0  0  0  0  0  0  0
  -29.0001   -2.7012   30.1151 O   0  0  0  0  0  0  0  0  0  0  0  0
  -24.5290    0.3490   28.7998 C   0  0  0  0  0  0  0  0  0  0  0  0
  -24.4808    1.2113   27.7998 C   0  0  0  0  0  0  0  0  0  0  0  0
  -23.2478    1.8974   27.4951 C   0  0  0  0  0  0  0  0  0  0  0  0
  -22.0497    1.5890   28.1642 C   0  0  0  0  0  0  0  0  0  0  0  0
  -23.3072    0.0149   29.4618 C   0  0  0  0  0  0  0  0  0  0  0  0
  -22.0852    0.6899   29.1374 C   0  0  0  0  0  0  0  0  0  0  0  0
  -30.1270   -2.1323   30.5815 C   0  0  0  0  0  0  0  0  0  0  0  0
  -31.1983   -2.7137   30.1241 C   0  0  0  0  0  0  0  0  0  0  0  0
  -31.2434   -3.8609   29.8911 O   0  0  0  0  0  0  0  0  0  0  0  0
  -32.4230   -2.0940   30.2219 N   0  0  0  0  0  0  0  0  0  0  0  0
  -33.6627   -2.6059   29.7245 C   0  0  0  0  0  0  0  0  0  0  0  0
  -34.0176   -3.5629   29.5383 C   0  0  0  0  0  0  0  0  0  0  0  0
  -35.3082   -3.9907   29.0062 C   0  0  0  0  0  0  0  0  0  0  0  0
  -34.7287   -1.6920   30.3367 C   0  0  0  0  0  0  0  0  0  0  0  0
  -36.0547   -1.9710   29.8757 C   0  0  0  0  0  0  0  0  0  0  0  0
  -36.3309   -3.1500   29.3258 C   0  0  0  0  0  0  0  0  0  0  0  0
  6  7  1  0
  3  8  1  0
  7 14  1  0
 14 15  1  0
 15 16  2  0
 15 17  1  0
 17 18  1  0
 18 19  2  0
 19 20  1  0
 20 23  2  0
 23 22  1  0
 22 21  2  0
 21 18  1  0
  1  2  2  0
  2  3  1  0
  3  4  2  0
  4  5  1  0
  5  6  2  0
  6  1  1  0
  8  9  2  0
  9 10  1  0
 10 11  2  0
 11 13  1  0
 13 12  2  0
 12  8  1  0
M  END

$$$$
