No_458-gen_results/8p0m/2024-11-27-11-27-31/
     RDKit          3D

 22 24  0  0  0  0  0  0  0  0999 V2000
  -28.0727   -1.2542   28.5316 F   0  0  0  0  0  0  0  0  0  0  0  0
  -28.2662   -0.4214   29.1931 C   0  0  0  0  0  0  0  0  0  0  0  0
  -27.2356   -0.0574   30.0145 C   0  0  0  0  0  0  0  0  0  0  0  0
  -27.2606    1.1013   30.9347 C   0  0  0  0  0  0  0  0  0  0  0  0
  -29.4969    0.3179   29.2904 C   0  0  0  0  0  0  0  0  0  0  0  0
  -29.5573    1.4396   30.2037 C   0  0  0  0  0  0  0  0  0  0  0  0
  -28.4535    1.8015   31.0013 C   0  0  0  0  0  0  0  0  0  0  0  0
  -25.9447   -0.7424   30.0259 C   0  0  0  0  0  0  0  0  0  0  0  0
  -25.0381   -0.4319   29.0064 C   0  0  0  0  0  0  0  0  0  0  0  0
  -23.8337   -1.0194   28.9771 C   0  0  0  0  0  0  0  0  0  0  0  0
  -23.5122   -2.0482   29.8943 C   0  0  0  0  0  0  0  0  0  0  0  0
  -24.4886   -2.4268   30.8137 C   0  0  0  0  0  0  0  0  0  0  0  0
  -25.6765   -1.7847   30.9313 C   0  0  0  0  0  0  0  0  0  0  0  0
  -30.4795    0.0039   28.5815 F   0  0  0  0  0  0  0  0  0  0  0  0
  -26.1626    1.4679   31.7934 C   0  0  0  0  0  0  0  0  0  0  0  0
  -26.2344    2.3437   32.6711 C   0  0  0  0  0  0  0  0  0  0  0  0
  -27.1800    2.5164   33.5605 C   0  0  0  0  0  0  0  0  0  0  0  0
  -27.2110    3.6126   34.5110 C   0  0  0  0  0  0  0  0  0  0  0  0
  -26.2300    4.5746   34.3625 C   0  0  0  0  0  0  0  0  0  0  0  0
  -25.2282    4.5094   33.3832 C   0  0  0  0  0  0  0  0  0  0  0  0
  -25.2238    3.4152   32.5310 C   0  0  0  0  0  0  0  0  0  0  0  0
  -24.3565    3.2013   31.5758 O   0  0  0  0  0  0  0  0  0  0  0  0
  1  2  1  0
  3  8  1  0
  5 14  1  0
  4 15  1  0
 21 22  1  0
 15 16  1  0
 16 17  2  0
 17 18  1  0
 18 19  2  0
 19 20  1  0
 20 21  2  0
 21 16  1  0
  8  9  2  0
  9 10  1  0
 10 11  2  0
 11 12  1  0
 12 13  2  0
 13  8  1  0
  2  3  2  0
  3  4  1  0
  4  7  2  0
  7  6  1  0
  6  5  2  0
  5  2  1  0
M  END

$$$$
