No_4296-gen_results/8p0m/2024-11-27-11-27-31/
     RDKit          3D

 16 17  0  0  0  0  0  0  0  0999 V2000
  -28.0727   -1.2542   28.5316 F   0  0  0  0  0  0  0  0  0  0  0  0
  -27.0607   -0.6291   28.8721 C   0  0  0  0  0  0  0  0  0  0  0  0
  -26.1528   -1.1557   29.4537 C   0  0  0  0  0  0  0  0  0  0  0  0
  -24.8778   -0.5788   29.8639 C   0  0  0  0  0  0  0  0  0  0  0  0
  -24.7426    0.8273   29.4808 C   0  0  0  0  0  0  0  0  0  0  0  0
  -25.7883    1.3927   28.7628 C   0  0  0  0  0  0  0  0  0  0  0  0
  -26.9145    0.7309   28.4427 C   0  0  0  0  0  0  0  0  0  0  0  0
  -23.5403    1.5267   29.8447 C   0  0  0  0  0  0  0  0  0  0  0  0
  -22.8829    2.0728   28.9740 O   0  0  0  0  0  0  0  0  0  0  0  0
  -23.1886    1.5563   31.1412 O   0  0  0  0  0  0  0  0  0  0  0  0
  -27.9379    1.3848   27.6638 C   0  0  0  0  0  0  0  0  0  0  0  0
  -28.7573    2.1574   28.3288 C   0  0  0  0  0  0  0  0  0  0  0  0
  -29.8313    2.8305   27.6387 C   0  0  0  0  0  0  0  0  0  0  0  0
  -29.9523    2.5824   26.2441 C   0  0  0  0  0  0  0  0  0  0  0  0
  -29.0913    1.7447   25.5681 C   0  0  0  0  0  0  0  0  0  0  0  0
  -28.0451    1.1347   26.2968 C   0  0  0  0  0  0  0  0  0  0  0  0
  1  2  1  0
  5  8  1  0
  8  9  2  0
  8 10  1  0
  7 11  1  0
 11 12  2  0
 12 13  1  0
 13 14  2  0
 14 15  1  0
 15 16  2  0
 16 11  1  0
  2  3  2  0
  3  4  1  0
  4  5  2  0
  5  6  1  0
  6  7  2  0
  7  2  1  0
M  END

$$$$
