No_4073-gen_results/8p0m/2024-11-27-11-27-31/
     RDKit          3D

 26 28  0  0  0  0  0  0  0  0999 V2000
  -28.0162   -0.8135   28.8779 C   0  0  0  0  0  0  0  0  0  0  0  0
  -28.4690   -0.7850   29.8287 C   0  0  0  0  0  0  0  0  0  0  0  0
  -26.5455   -0.8762   28.8500 C   0  0  0  0  0  0  0  0  0  0  0  0
  -25.8974   -0.8267   29.8894 C   0  0  0  0  0  0  0  0  0  0  0  0
  -26.4945   -0.7976   31.1740 C   0  0  0  0  0  0  0  0  0  0  0  0
  -27.8589   -0.7585   31.1651 C   0  0  0  0  0  0  0  0  0  0  0  0
  -24.3777   -0.8594   29.9373 C   0  0  0  0  0  0  0  0  0  0  0  0
  -23.7571    0.4559   29.9965 C   0  0  0  0  0  0  0  0  0  0  0  0
  -22.4889    0.6000   29.4442 C   0  0  0  0  0  0  0  0  0  0  0  0
  -21.7492   -0.5588   29.0851 C   0  0  0  0  0  0  0  0  0  0  0  0
  -23.5780   -1.9274   29.4960 C   0  0  0  0  0  0  0  0  0  0  0  0
  -22.2843   -1.7576   29.0279 C   0  0  0  0  0  0  0  0  0  0  0  0
  -25.8724   -0.8963   27.6383 O   0  0  0  0  0  0  0  0  0  0  0  0
  -24.5324    1.6404   30.4148 C   0  0  0  0  0  0  0  0  0  0  0  0
  -24.4241    2.0369   31.5658 O   0  0  0  0  0  0  0  0  0  0  0  0
  -25.3419    2.2483   29.5656 N   0  0  0  0  0  0  0  0  0  0  0  0
  -26.1274    3.4807   29.9437 C   0  0  0  0  0  0  0  0  0  0  0  0
  -26.8727    3.9161   28.8883 C   0  0  0  0  0  0  0  0  0  0  0  0
  -27.8902    4.7234   29.1255 C   0  0  0  0  0  0  0  0  0  0  0  0
  -28.0803    5.3185   30.4588 C   0  0  0  0  0  0  0  0  0  0  0  0
  -27.2761    4.8175   31.4659 C   0  0  0  0  0  0  0  0  0  0  0  0
  -26.3425    3.8199   31.2542 C   0  0  0  0  0  0  0  0  0  0  0  0
  -27.5182    5.4205   33.0750 Cl  0  0  0  0  0  0  0  0  0  0  0  0
  -30.0628   -0.6787   29.9336 C   0  0  0  0  0  0  0  0  0  0  0  0
  -30.6075   -0.4395   28.9463 O   0  0  0  0  0  0  0  0  0  0  0  0
  -30.6737   -0.7183   31.0522 O   0  0  0  0  0  0  0  0  0  0  0  0
  4  7  1  0
  3 13  1  0
  8 14  1  0
 14 15  2  0
 14 16  1  0
 16 17  1  0
 21 23  1  0
  2 24  1  0
 24 25  2  0
 24 26  1  0
  7  8  1  0
  8  9  2  0
  9 10  1  0
 10 12  2  0
 12 11  1  0
 11  7  2  0
  1  2  2  0
  2  6  1  0
  6  5  2  0
  5  4  1  0
  4  3  2  0
  3  1  1  0
 17 18  2  0
 18 19  1  0
 19 20  2  0
 20 21  1  0
 21 22  2  0
 22 17  1  0
M  END

$$$$
