No_4649-gen_results/8p0m/2024-11-27-11-27-31/
     RDKit          3D

 10 10  0  0  0  0  0  0  0  0999 V2000
  -28.0727   -1.2542   28.5316 F   0  0  0  0  0  0  0  0  0  0  0  0
  -27.3591   -0.3792   28.7224 C   0  0  0  0  0  0  0  0  0  0  0  0
  -26.3180   -0.6608   29.1159 F   0  0  0  0  0  0  0  0  0  0  0  0
  -27.2545    0.4794   27.4896 C   0  0  0  0  0  0  0  0  0  0  0  0
  -27.9307    0.4754   29.6895 F   0  0  0  0  0  0  0  0  0  0  0  0
  -25.9910    0.8564   27.1683 C   0  0  0  0  0  0  0  0  0  0  0  0
  -25.6253    1.6144   26.0213 C   0  0  0  0  0  0  0  0  0  0  0  0
  -26.5747    2.1449   25.3185 C   0  0  0  0  0  0  0  0  0  0  0  0
  -28.2544    0.9790   26.7004 C   0  0  0  0  0  0  0  0  0  0  0  0
  -27.9537    1.8093   25.5981 C   0  0  0  0  0  0  0  0  0  0  0  0
  1  2  1  0
  2  3  1  0
  2  4  1  0
  2  5  1  0
  4  6  2  0
  6  7  1  0
  7  8  2  0
  8 10  1  0
 10  9  2  0
  9  4  1  0
M  END

$$$$
