No_4129-gen_results/8p0m/2024-11-27-11-27-31/
     RDKit          3D

 30 33  0  0  0  0  0  0  0  0999 V2000
  -28.0162   -0.8135   28.8779 C   0  0  0  0  0  0  0  0  0  0  0  0
  -28.4690   -0.7850   29.8287 C   0  0  0  0  0  0  0  0  0  0  0  0
  -26.5042   -0.7777   28.8766 C   0  0  0  0  0  0  0  0  0  0  0  0
  -25.6540   -0.6597   27.7191 C   0  0  0  0  0  0  0  0  0  0  0  0
  -27.9180   -0.9374   31.1824 C   0  0  0  0  0  0  0  0  0  0  0  0
  -26.5423   -0.9399   31.2606 C   0  0  0  0  0  0  0  0  0  0  0  0
  -25.7832   -0.8935   30.1201 C   0  0  0  0  0  0  0  0  0  0  0  0
  -25.2204    0.6866   27.3939 C   0  0  0  0  0  0  0  0  0  0  0  0
  -25.3030    1.0787   26.0731 C   0  0  0  0  0  0  0  0  0  0  0  0
  -24.7297    2.3383   25.6867 C   0  0  0  0  0  0  0  0  0  0  0  0
  -24.0919    3.1193   26.6980 C   0  0  0  0  0  0  0  0  0  0  0  0
  -24.4906    1.5258   28.2612 C   0  0  0  0  0  0  0  0  0  0  0  0
  -23.9466    2.6799   27.9003 C   0  0  0  0  0  0  0  0  0  0  0  0
  -30.0590   -0.8033   29.8510 C   0  0  0  0  0  0  0  0  0  0  0  0
  -30.4880   -0.2843   28.9217 O   0  0  0  0  0  0  0  0  0  0  0  0
  -30.6920   -1.6344   30.6134 O   0  0  0  0  0  0  0  0  0  0  0  0
  -25.9148    0.3682   25.0389 C   0  0  0  0  0  0  0  0  0  0  0  0
  -27.2891    0.6763   24.7201 C   0  0  0  0  0  0  0  0  0  0  0  0
  -28.1429   -0.1605   24.0578 C   0  0  0  0  0  0  0  0  0  0  0  0
  -29.4727    0.1601   23.9608 C   0  0  0  0  0  0  0  0  0  0  0  0
  -29.9857    1.3608   24.5045 C   0  0  0  0  0  0  0  0  0  0  0  0
  -29.1588    2.2478   25.1621 C   0  0  0  0  0  0  0  0  0  0  0  0
  -27.8094    1.9373   25.3524 C   0  0  0  0  0  0  0  0  0  0  0  0
  -25.4633   -0.7769   24.7281 O   0  0  0  0  0  0  0  0  0  0  0  0
  -31.4207    1.6581   24.3644 C   0  0  0  0  0  0  0  0  0  0  0  0
  -32.1467    1.2852   23.4207 C   0  0  0  0  0  0  0  0  0  0  0  0
  -33.5305    1.6650   23.2128 C   0  0  0  0  0  0  0  0  0  0  0  0
  -34.0755    2.5948   24.0875 C   0  0  0  0  0  0  0  0  0  0  0  0
  -33.3304    3.1165   25.1072 C   0  0  0  0  0  0  0  0  0  0  0  0
  -31.9881    2.7523   25.2445 C   0  0  0  0  0  0  0  0  0  0  0  0
  3  4  1  0
  4  8  1  0
  2 14  1  0
 14 15  1  0
 14 16  2  0
  9 17  1  0
 17 18  1  0
 17 24  2  0
 21 25  1  0
 18 19  2  0
 19 20  1  0
 20 21  2  0
 21 22  1  0
 22 23  2  0
 23 18  1  0
 25 26  2  0
 26 27  1  0
 27 28  2  0
 28 29  1  0
 29 30  2  0
 30 25  1  0
  1  2  2  0
  2  5  1  0
  5  6  2  0
  6  7  1  0
  7  3  2  0
  3  1  1  0
  8  9  1  0
  9 10  2  0
 10 11  1  0
 11 13  2  0
 13 12  1  0
 12  8  2  0
M  END

$$$$
