No_4653-gen_results/8p0m/2024-11-27-11-27-31/
     RDKit          3D

 17 17  0  0  0  0  0  0  0  0999 V2000
  -28.0162   -0.8135   28.8779 C   0  0  0  0  0  0  0  0  0  0  0  0
  -27.0636   -0.1190   28.6079 C   0  0  0  0  0  0  0  0  0  0  0  0
  -26.9716    0.7139   27.5060 C   0  0  0  0  0  0  0  0  0  0  0  0
  -25.8205    1.4909   27.1160 C   0  0  0  0  0  0  0  0  0  0  0  0
  -24.6562    1.4242   27.9180 C   0  0  0  0  0  0  0  0  0  0  0  0
  -24.6847    0.5901   29.0659 C   0  0  0  0  0  0  0  0  0  0  0  0
  -25.8099   -0.1266   29.3338 C   0  0  0  0  0  0  0  0  0  0  0  0
  -29.2185   -0.0422   29.3127 C   0  0  0  0  0  0  0  0  0  0  0  0
  -30.2802   -0.8075   29.8362 C   0  0  0  0  0  0  0  0  0  0  0  0
  -23.4679    2.2043   27.6013 C   0  0  0  0  0  0  0  0  0  0  0  0
  -23.2801    2.7366   26.5147 O   0  0  0  0  0  0  0  0  0  0  0  0
  -22.3467    1.9853   28.3312 O   0  0  0  0  0  0  0  0  0  0  0  0
  -30.4643   -0.8180   31.1497 C   0  0  0  0  0  0  0  0  0  0  0  0
  -31.7131   -1.1320   31.7095 C   0  0  0  0  0  0  0  0  0  0  0  0
  -31.3401   -1.5997   28.8764 Cl  0  0  0  0  0  0  0  0  0  0  0  0
  -32.6288   -1.0005   31.1157 F   0  0  0  0  0  0  0  0  0  0  0  0
  -31.6387   -2.4478   32.2120 F   0  0  0  0  0  0  0  0  0  0  0  0
  1  2  2  3
  2  3  1  0
  3  4  1  0
  4  5  1  0
  5  6  1  0
  2  7  1  0
  6  7  1  0
  1  8  1  0
  8  9  1  0
  5 10  1  0
 10 11  2  0
 10 12  1  0
  9 13  2  3
 13 14  1  0
  9 15  1  0
 14 16  1  0
 14 17  1  0
M  END

$$$$
