No_4147-gen_results/8p0m/2024-11-27-11-27-31/
     RDKit          3D

 14 14  0  0  0  0  0  0  0  0999 V2000
  -28.1229   -1.3353   28.4874 O   0  0  0  0  0  0  0  0  0  0  0  0
  -27.4806   -0.4044   28.7094 C   0  0  0  0  0  0  0  0  0  0  0  0
  -27.1904    0.2460   29.5268 C   0  0  0  0  0  0  0  0  0  0  0  0
  -26.6021   -0.1576   27.5515 N   0  0  0  0  0  0  0  0  0  0  0  0
  -25.6421    0.9031   27.5822 C   0  0  0  0  0  0  0  0  0  0  0  0
  -25.5004    1.6142   28.7368 C   0  0  0  0  0  0  0  0  0  0  0  0
  -24.4397    2.6576   28.8421 C   0  0  0  0  0  0  0  0  0  0  0  0
  -26.2344    1.3025   29.8495 C   0  0  0  0  0  0  0  0  0  0  0  0
  -23.4321    2.6302   28.6537 O   0  0  0  0  0  0  0  0  0  0  0  0
  -25.0713    3.9479   28.7537 O   0  0  0  0  0  0  0  0  0  0  0  0
  -28.0276   -0.0914   30.9102 C   0  0  0  0  0  0  0  0  0  0  0  0
  -27.6269   -0.5474   31.8163 O   0  0  0  0  0  0  0  0  0  0  0  0
  -29.1433    0.6271   30.9162 O   0  0  0  0  0  0  0  0  0  0  0  0
  -24.9153    1.1192   26.4655 N   0  0  0  0  0  0  0  0  0  0  0  0
  1  2  2  0
  2  3  1  0
  2  4  1  0
  4  5  1  0
  5  6  1  0
  6  7  1  0
  3  8  1  0
  6  8  1  0
  7  9  2  0
  7 10  1  0
  3 11  1  0
 11 12  2  0
 11 13  1  0
  5 14  1  0
M  END

$$$$
