No_4639-gen_results/8p0m/2024-11-27-11-27-31/
     RDKit          3D

 35 38  0  0  0  0  0  0  0  0999 V2000
  -28.0162   -0.8135   28.8779 C   0  0  0  0  0  0  0  0  0  0  0  0
  -28.4690   -0.7850   29.8287 C   0  0  0  0  0  0  0  0  0  0  0  0
  -26.5042   -0.7777   28.8766 C   0  0  0  0  0  0  0  0  0  0  0  0
  -25.8103   -0.8531   30.1028 C   0  0  0  0  0  0  0  0  0  0  0  0
  -27.9906   -0.8916   31.2257 C   0  0  0  0  0  0  0  0  0  0  0  0
  -26.6042   -0.8676   31.2652 C   0  0  0  0  0  0  0  0  0  0  0  0
  -30.4622   -0.8398   29.8385 Br  0  0  0  0  0  0  0  0  0  0  0  0
  -24.3620   -0.8196   30.1394 C   0  0  0  0  0  0  0  0  0  0  0  0
  -23.6760   -1.2865   30.8006 C   0  0  0  0  0  0  0  0  0  0  0  0
  -22.1832   -1.1487   30.8747 C   0  0  0  0  0  0  0  0  0  0  0  0
  -21.7080   -0.3839   29.8245 C   0  0  0  0  0  0  0  0  0  0  0  0
  -23.6422    0.0020   29.1093 C   0  0  0  0  0  0  0  0  0  0  0  0
  -22.4171    0.1893   28.9725 C   0  0  0  0  0  0  0  0  0  0  0  0
  -21.8815    1.0366   27.8770 C   0  0  0  0  0  0  0  0  0  0  0  0
  -20.8445    1.8359   28.1323 N   0  0  0  0  0  0  0  0  0  0  0  0
  -22.5038    1.2175   26.7863 O   0  0  0  0  0  0  0  0  0  0  0  0
  -25.8778   -0.7285   27.7222 O   0  0  0  0  0  0  0  0  0  0  0  0
  -26.4935    0.0734   26.7906 C   0  0  0  0  0  0  0  0  0  0  0  0
  -25.8078    0.0245   25.4600 C   0  0  0  0  0  0  0  0  0  0  0  0
  -27.4652    0.9619   26.7886 C   0  0  0  0  0  0  0  0  0  0  0  0
  -27.8115    1.7357   25.7166 C   0  0  0  0  0  0  0  0  0  0  0  0
  -28.9277    2.5747   25.8639 C   0  0  0  0  0  0  0  0  0  0  0  0
  -26.0968    0.7036   24.3848 C   0  0  0  0  0  0  0  0  0  0  0  0
  -27.0984    1.5508   24.5348 C   0  0  0  0  0  0  0  0  0  0  0  0
  -29.8586    2.6942   24.9731 C   0  0  0  0  0  0  0  0  0  0  0  0
  -30.9792    3.2840   25.0655 C   0  0  0  0  0  0  0  0  0  0  0  0
  -31.2750    4.0086   26.2914 C   0  0  0  0  0  0  0  0  0  0  0  0
  -30.3488    3.9493   27.2896 C   0  0  0  0  0  0  0  0  0  0  0  0
  -29.2285    3.2237   27.1693 C   0  0  0  0  0  0  0  0  0  0  0  0
  -32.8868    4.9840   26.4415 Br  0  0  0  0  0  0  0  0  0  0  0  0
  -31.8704    3.4880   24.0273 O   0  0  0  0  0  0  0  0  0  0  0  0
  -31.8293    2.5436   23.0086 C   0  0  0  0  0  0  0  0  0  0  0  0
  -30.6620    4.6673   28.8504 Cl  0  0  0  0  0  0  0  0  0  0  0  0
  -32.1149    1.3053   23.3530 C   0  0  0  0  0  0  0  0  0  0  0  0
  -33.3069    0.7147   22.9194 C   0  0  0  0  0  0  0  0  0  0  0  0
  2  7  1  0
  4  8  1  0
 13 14  1  0
 14 15  1  0
 14 16  2  0
  3 17  1  0
 17 18  1  0
 21 22  1  0
 27 30  1  0
 26 31  1  0
 31 32  1  0
 28 33  1  0
 32 34  1  0
 34 35  1  0
 22 25  2  0
 25 26  1  0
 26 27  2  0
 27 28  1  0
 28 29  2  0
 29 22  1  0
  1  2  2  0
  2  5  1  0
  5  6  2  0
  6  4  1  0
  4  3  2  0
  3  1  1  0
 18 19  2  0
 19 23  1  0
 23 24  2  0
 24 21  1  0
 21 20  2  0
 20 18  1  0
  8  9  2  0
  9 10  1  0
 10 11  2  0
 11 13  1  0
 13 12  2  0
 12  8  1  0
M  END

$$$$
