No_4279-gen_results/8p0m/2024-11-27-11-27-31/
     RDKit          3D

 32 36  0  0  0  0  0  0  0  0999 V2000
  -28.0162   -0.8135   28.8779 C   0  0  0  0  0  0  0  0  0  0  0  0
  -28.4690   -0.7850   29.8287 C   0  0  0  0  0  0  0  0  0  0  0  0
  -27.0871    0.2903   28.6377 C   0  0  0  0  0  0  0  0  0  0  0  0
  -26.8317    1.2487   29.5869 C   0  0  0  0  0  0  0  0  0  0  0  0
  -28.3914    0.0801   31.0065 C   0  0  0  0  0  0  0  0  0  0  0  0
  -27.4940    1.1521   30.7841 C   0  0  0  0  0  0  0  0  0  0  0  0
  -26.3172    0.3994   27.3653 C   0  0  0  0  0  0  0  0  0  0  0  0
  -25.4320    1.4867   27.2802 C   0  0  0  0  0  0  0  0  0  0  0  0
  -24.5070    1.5432   26.2743 C   0  0  0  0  0  0  0  0  0  0  0  0
  -24.3037    0.5798   25.3838 C   0  0  0  0  0  0  0  0  0  0  0  0
  -25.3984   -0.3882   25.3425 C   0  0  0  0  0  0  0  0  0  0  0  0
  -26.2190   -0.5520   26.4051 C   0  0  0  0  0  0  0  0  0  0  0  0
  -23.5164    2.7134   26.1393 C   0  0  0  0  0  0  0  0  0  0  0  0
  -29.3691   -1.8940   30.1795 O   0  0  0  0  0  0  0  0  0  0  0  0
  -28.8657   -3.1728   30.4667 C   0  0  0  0  0  0  0  0  0  0  0  0
  -29.8430   -4.1901   30.3745 C   0  0  0  0  0  0  0  0  0  0  0  0
  -30.8959   -4.0292   30.9998 N   0  0  0  0  0  0  0  0  0  0  0  0
  -31.2458   -3.0799   31.6416 C   0  0  0  0  0  0  0  0  0  0  0  0
  -32.0351   -4.7811   30.3237 C   0  0  0  0  0  0  0  0  0  0  0  0
  -32.5883   -2.9756   32.2625 C   0  0  0  0  0  0  0  0  0  0  0  0
  -31.7843   -5.7476   29.4092 C   0  0  0  0  0  0  0  0  0  0  0  0
  -32.4449   -6.6349   29.0698 C   0  0  0  0  0  0  0  0  0  0  0  0
  -32.1445   -7.6114   27.9523 C   0  0  0  0  0  0  0  0  0  0  0  0
  -31.0588   -7.2263   27.1050 C   0  0  0  0  0  0  0  0  0  0  0  0
  -30.3453   -6.0555   27.3415 C   0  0  0  0  0  0  0  0  0  0  0  0
  -30.6123   -5.3059   28.4004 C   0  0  0  0  0  0  0  0  0  0  0  0
  -33.2389   -4.5300   30.8993 C   0  0  0  0  0  0  0  0  0  0  0  0
  -33.5343   -3.6686   31.8265 C   0  0  0  0  0  0  0  0  0  0  0  0
  -29.8446   -4.8317   29.1331 O   0  0  0  0  0  0  0  0  0  0  0  0
  -32.8276   -1.8430   33.3106 C   0  0  0  0  0  0  0  0  0  0  0  0
  -31.9567   -1.2707   33.8889 O   0  0  0  0  0  0  0  0  0  0  0  0
  -34.0403   -1.5809   33.5593 O   0  0  0  0  0  0  0  0  0  0  0  0
  3  7  1  0
  9 13  1  0
  2 14  1  0
 14 15  1  0
 15 16  2  3
 16 17  1  0
 17 18  1  0
 17 19  1  0
 19 21  1  0
 19 27  1  0
 20 28  1  0
 16 29  1  0
 26 29  1  0
 20 30  1  0
 30 31  2  0
 30 32  1  0
 18 20  1  0
 28 27  1  0
 21 22  2  0
 22 23  1  0
 23 24  2  0
 24 25  1  0
 25 26  2  0
 26 21  1  0
  1  2  2  0
  2  5  1  0
  5  6  2  0
  6  4  1  0
  4  3  2  0
  3  1  1  0
  7  8  2  0
  8  9  1  0
  9 10  2  0
 10 11  1  0
 11 12  2  0
 12  7  1  0
M  END

$$$$
