No_4872-gen_results/8p0m/2024-11-27-11-27-31/
     RDKit          3D

 34 38  0  0  0  0  0  0  0  0999 V2000
  -28.1229   -1.3353   28.4874 O   0  0  0  0  0  0  0  0  0  0  0  0
  -27.4806   -0.4044   28.7094 C   0  0  0  0  0  0  0  0  0  0  0  0
  -27.1904    0.2460   29.5268 C   0  0  0  0  0  0  0  0  0  0  0  0
  -26.6021   -0.1576   27.5515 N   0  0  0  0  0  0  0  0  0  0  0  0
  -25.6421    0.9031   27.5822 C   0  0  0  0  0  0  0  0  0  0  0  0
  -25.5003    1.6142   28.7368 C   0  0  0  0  0  0  0  0  0  0  0  0
  -26.2674    1.2888   29.8086 C   0  0  0  0  0  0  0  0  0  0  0  0
  -24.8851    1.1487   26.4884 N   0  0  0  0  0  0  0  0  0  0  0  0
  -23.8891    2.1356   26.6599 C   0  0  0  0  0  0  0  0  0  0  0  0
  -23.6784    2.7954   27.7133 N   0  0  0  0  0  0  0  0  0  0  0  0
  -24.4109    2.5980   28.7501 C   0  0  0  0  0  0  0  0  0  0  0  0
  -23.1054    2.3902   25.5440 N   0  0  0  0  0  0  0  0  0  0  0  0
  -28.0703   -0.0320   30.8958 C   0  0  0  0  0  0  0  0  0  0  0  0
  -29.2346    0.6009   30.8988 C   0  0  0  0  0  0  0  0  0  0  0  0
  -29.4741    1.6884   30.6518 C   0  0  0  0  0  0  0  0  0  0  0  0
  -30.8407    2.3518   30.7484 C   0  0  0  0  0  0  0  0  0  0  0  0
  -31.8420    1.5027   31.1779 C   0  0  0  0  0  0  0  0  0  0  0  0
  -31.6019    0.1984   31.4567 C   0  0  0  0  0  0  0  0  0  0  0  0
  -30.3387   -0.3454   31.4003 C   0  0  0  0  0  0  0  0  0  0  0  0
  -33.2282    2.0800   31.3339 C   0  0  0  0  0  0  0  0  0  0  0  0
  -33.4461    3.1207   31.7806 O   0  0  0  0  0  0  0  0  0  0  0  0
  -34.1223    1.1444   31.2590 O   0  0  0  0  0  0  0  0  0  0  0  0
  -26.0796    2.1032   31.1037 C   0  0  0  0  0  0  0  0  0  0  0  0
  -25.2796    1.7395   32.0127 N   0  0  0  0  0  0  0  0  0  0  0  0
  -25.1819    2.5600   33.1024 C   0  0  0  0  0  0  0  0  0  0  0  0
  -26.1623    3.5156   30.9071 C   0  0  0  0  0  0  0  0  0  0  0  0
  -26.2084    4.3525   31.9605 C   0  0  0  0  0  0  0  0  0  0  0  0
  -26.6249    5.7278   31.9724 C   0  0  0  0  0  0  0  0  0  0  0  0
  -25.6036    3.8053   33.1538 C   0  0  0  0  0  0  0  0  0  0  0  0
  -27.5766    6.0648   32.7588 C   0  0  0  0  0  0  0  0  0  0  0  0
  -25.6110    6.7049   31.7948 C   0  0  0  0  0  0  0  0  0  0  0  0
  -25.9480    8.0067   31.4631 C   0  0  0  0  0  0  0  0  0  0  0  0
  -28.0634    7.4980   32.6135 C   0  0  0  0  0  0  0  0  0  0  0  0
  -27.1627    8.4327   32.1331 C   0  0  0  0  0  0  0  0  0  0  0  0
  1  2  2  0
  2  3  1  0
  2  4  1  0
  4  5  1  0
  6  7  1  0
  9 12  1  0
  3 13  1  0
 13 14  1  0
 17 20  1  0
 20 21  1  0
 20 22  2  0
  7 23  1  0
 27 28  1  0
  3  7  1  0
 23 24  2  0
 24 25  1  0
 25 29  2  0
 29 27  1  0
 27 26  2  0
 26 23  1  0
  5  8  2  0
  8  9  1  0
  9 10  2  0
 10 11  1  0
 11  6  2  0
  6  5  1  0
 14 15  2  0
 15 16  1  0
 16 17  2  0
 17 18  1  0
 18 19  2  0
 19 14  1  0
 28 30  2  0
 30 33  1  0
 33 34  2  0
 34 32  1  0
 32 31  2  0
 31 28  1  0
M  END

$$$$
