No_4336-gen_results/8p0m/2024-11-27-11-27-31/
     RDKit          3D

 18 19  0  0  0  0  0  0  0  0999 V2000
  -28.0162   -0.8135   28.8779 C   0  0  0  0  0  0  0  0  0  0  0  0
  -27.0636   -0.1190   28.6079 C   0  0  0  0  0  0  0  0  0  0  0  0
  -26.9716    0.7139   27.5060 C   0  0  0  0  0  0  0  0  0  0  0  0
  -28.1053    0.7744   26.6421 C   0  0  0  0  0  0  0  0  0  0  0  0
  -29.2008    0.1044   27.0527 C   0  0  0  0  0  0  0  0  0  0  0  0
  -29.2096   -0.6029   28.1853 C   0  0  0  0  0  0  0  0  0  0  0  0
  -30.3702    0.2264   26.1604 C   0  0  0  0  0  0  0  0  0  0  0  0
  -31.3165   -0.4572   26.3805 N   0  0  0  0  0  0  0  0  0  0  0  0
  -30.3263    0.9695   25.1228 O   0  0  0  0  0  0  0  0  0  0  0  0
  -32.5164   -0.5120   25.4585 C   0  0  0  0  0  0  0  0  0  0  0  0
  -28.0339   -1.6660   30.1436 C   0  0  0  0  0  0  0  0  0  0  0  0
  -28.6513   -1.6744   31.0383 N   0  0  0  0  0  0  0  0  0  0  0  0
  -27.0891   -2.6655   30.0516 O   0  0  0  0  0  0  0  0  0  0  0  0
  -29.6976   -0.6364   31.3512 C   0  0  0  0  0  0  0  0  0  0  0  0
  -30.5939   -0.9829   32.2679 C   0  0  0  0  0  0  0  0  0  0  0  0
  -30.4490   -2.0546   32.9153 C   0  0  0  0  0  0  0  0  0  0  0  0
  -29.5473   -3.0779   32.7250 C   0  0  0  0  0  0  0  0  0  0  0  0
  -28.7056   -2.8786   31.7338 C   0  0  0  0  0  0  0  0  0  0  0  0
  5  7  1  0
  7  8  1  0
  7  9  2  0
  8 10  1  0
  1 11  1  0
 11 12  1  0
 11 13  2  0
 12 14  1  0
 15 16  1  0
 12 18  1  0
 17 18  1  0
 14 15  1  0
 16 17  1  0
  1  2  2  0
  2  3  1  0
  3  4  2  0
  4  5  1  0
  5  6  2  0
  6  1  1  0
M  END

$$$$
