No_4153-gen_results/8p0m/2024-11-27-11-27-31/
     RDKit          3D

 11 11  0  0  0  0  0  0  0  0999 V2000
  -28.1229   -1.3353   28.4874 O   0  0  0  0  0  0  0  0  0  0  0  0
  -28.5208   -0.4363   29.0779 C   0  0  0  0  0  0  0  0  0  0  0  0
  -29.7346    0.1380   28.9710 Br  0  0  0  0  0  0  0  0  0  0  0  0
  -27.6165    0.0189   30.0653 N   0  0  0  0  0  0  0  0  0  0  0  0
  -26.2955   -0.4539   30.2956 C   0  0  0  0  0  0  0  0  0  0  0  0
  -25.3342    0.4651   29.7659 C   0  0  0  0  0  0  0  0  0  0  0  0
  -24.8227    1.3095   30.1220 C   0  0  0  0  0  0  0  0  0  0  0  0
  -23.7873    2.1727   29.6194 C   0  0  0  0  0  0  0  0  0  0  0  0
  -23.2826    1.7354   28.3546 C   0  0  0  0  0  0  0  0  0  0  0  0
  -23.7448    0.5626   27.8235 C   0  0  0  0  0  0  0  0  0  0  0  0
  -24.7210   -0.1411   28.4599 C   0  0  0  0  0  0  0  0  0  0  0  0
  1  2  2  0
  2  3  1  0
  2  4  1  0
  4  5  1  0
  5  6  1  0
  6  7  2  0
  7  8  1  0
  8  9  2  0
  9 10  1  0
 10 11  2  0
 11  6  1  0
M  END

$$$$
