No_4671-gen_results/8p0m/2024-11-27-11-27-31/
     RDKit          3D

 23 25  0  0  0  0  0  0  0  0999 V2000
  -28.0162   -0.8135   28.8779 C   0  0  0  0  0  0  0  0  0  0  0  0
  -27.0636   -0.1190   28.6079 C   0  0  0  0  0  0  0  0  0  0  0  0
  -25.7647   -0.3897   29.0360 C   0  0  0  0  0  0  0  0  0  0  0  0
  -25.5296   -1.5302   29.9014 C   0  0  0  0  0  0  0  0  0  0  0  0
  -26.6888   -2.2893   30.1810 C   0  0  0  0  0  0  0  0  0  0  0  0
  -27.8727   -1.9508   29.7373 C   0  0  0  0  0  0  0  0  0  0  0  0
  -24.7078    0.5670   28.7015 C   0  0  0  0  0  0  0  0  0  0  0  0
  -23.4620    0.2939   29.1741 C   0  0  0  0  0  0  0  0  0  0  0  0
  -22.3635    1.1330   28.8239 C   0  0  0  0  0  0  0  0  0  0  0  0
  -22.5249    2.1143   27.8027 C   0  0  0  0  0  0  0  0  0  0  0  0
  -24.7770    1.4879   27.6943 C   0  0  0  0  0  0  0  0  0  0  0  0
  -23.7337    2.2549   27.2602 C   0  0  0  0  0  0  0  0  0  0  0  0
  -23.9012    3.1924   26.2941 O   0  0  0  0  0  0  0  0  0  0  0  0
  -28.9576   -2.7186   30.0880 O   0  0  0  0  0  0  0  0  0  0  0  0
  -29.3023   -2.8284   31.4379 C   0  0  0  0  0  0  0  0  0  0  0  0
  -30.6709   -2.7006   31.6699 C   0  0  0  0  0  0  0  0  0  0  0  0
  -31.0689   -2.8019   33.1380 S   0  0  0  0  0  0  0  0  0  0  0  0
  -29.5042   -3.1394   33.7069 C   0  0  0  0  0  0  0  0  0  0  0  0
  -28.6610   -3.1699   32.6389 O   0  0  0  0  0  0  0  0  0  0  0  0
  -31.6123   -2.4547   30.5792 C   0  0  0  0  0  0  0  0  0  0  0  0
  -31.4063   -1.3451   30.0462 F   0  0  0  0  0  0  0  0  0  0  0  0
  -32.8092   -2.3443   31.0813 F   0  0  0  0  0  0  0  0  0  0  0  0
  -31.5566   -3.4217   29.6883 F   0  0  0  0  0  0  0  0  0  0  0  0
  3  7  1  0
 12 13  1  0
  6 14  1  0
 14 15  1  0
 15 16  1  0
 16 17  1  0
 17 18  1  0
 15 19  1  0
 18 19  1  0
 16 20  1  0
 20 21  1  0
 20 22  1  0
 20 23  1  0
  7  8  2  0
  8  9  1  0
  9 10  2  0
 10 12  1  0
 12 11  2  0
 11  7  1  0
  1  2  2  0
  2  3  1  0
  3  4  2  0
  4  5  1  0
  5  6  2  0
  6  1  1  0
M  END

$$$$
