No_4288-gen_results/8p0m/2024-11-27-11-27-31/
     RDKit          3D

 16 16  0  0  0  0  0  0  0  0999 V2000
  -28.0162   -0.8135   28.8779 C   0  0  0  0  0  0  0  0  0  0  0  0
  -28.4690   -0.7850   29.8287 C   0  0  0  0  0  0  0  0  0  0  0  0
  -26.5455   -0.8762   28.8500 C   0  0  0  0  0  0  0  0  0  0  0  0
  -25.8041   -1.0324   30.0571 C   0  0  0  0  0  0  0  0  0  0  0  0
  -27.9437   -0.9869   31.2075 C   0  0  0  0  0  0  0  0  0  0  0  0
  -26.5825   -1.0386   31.2231 C   0  0  0  0  0  0  0  0  0  0  0  0
  -30.0606   -0.7371   29.9024 C   0  0  0  0  0  0  0  0  0  0  0  0
  -30.6056   -0.0348   29.0093 N   0  0  0  0  0  0  0  0  0  0  0  0
  -31.5026    0.4445   28.7787 C   0  0  0  0  0  0  0  0  0  0  0  0
  -32.7231    0.4404   29.9007 Cl  0  0  0  0  0  0  0  0  0  0  0  0
  -31.9170    1.1240   27.6774 O   0  0  0  0  0  0  0  0  0  0  0  0
  -24.3565   -1.1024   30.0638 C   0  0  0  0  0  0  0  0  0  0  0  0
  -23.9325   -2.0443   29.3635 F   0  0  0  0  0  0  0  0  0  0  0  0
  -23.9146    0.1447   29.7434 F   0  0  0  0  0  0  0  0  0  0  0  0
  -23.9011   -1.2900   31.3676 F   0  0  0  0  0  0  0  0  0  0  0  0
  -30.6875   -1.3760   30.7256 O   0  0  0  0  0  0  0  0  0  0  0  0
  2  7  1  0
  7  8  1  0
  8  9  1  0
  9 10  1  0
  9 11  2  0
  4 12  1  0
 12 13  1  0
 12 14  1  0
 12 15  1  0
  7 16  2  0
  1  2  2  0
  2  5  1  0
  5  6  2  0
  6  4  1  0
  4  3  2  0
  3  1  1  0
M  END

$$$$
