No_490-gen_results/8p0m/2024-11-27-11-27-31/
     RDKit          3D

 14 14  0  0  0  0  0  0  0  0999 V2000
  -28.0162   -0.8135   28.8779 C   0  0  0  0  0  0  0  0  0  0  0  0
  -28.4690   -0.7850   29.8287 C   0  0  0  0  0  0  0  0  0  0  0  0
  -27.1356    0.2359   28.5352 C   0  0  0  0  0  0  0  0  0  0  0  0
  -26.8745    1.2825   29.3982 C   0  0  0  0  0  0  0  0  0  0  0  0
  -28.3613    0.1987   30.9244 C   0  0  0  0  0  0  0  0  0  0  0  0
  -27.5277    1.2234   30.6356 C   0  0  0  0  0  0  0  0  0  0  0  0
  -26.2960    0.2786   27.0255 Cl  0  0  0  0  0  0  0  0  0  0  0  0
  -29.4224   -1.9755   30.3198 C   0  0  0  0  0  0  0  0  0  0  0  0
  -29.8650   -1.9107   31.5634 O   0  0  0  0  0  0  0  0  0  0  0  0
  -29.5134   -2.9569   29.6505 O   0  0  0  0  0  0  0  0  0  0  0  0
  -25.9856    2.4030   29.0307 C   0  0  0  0  0  0  0  0  0  0  0  0
  -26.3277    3.4494   28.1104 Cl  0  0  0  0  0  0  0  0  0  0  0  0
  -25.6239    3.1014   30.2261 F   0  0  0  0  0  0  0  0  0  0  0  0
  -24.6724    1.8726   28.8736 F   0  0  0  0  0  0  0  0  0  0  0  0
  3  7  1  0
  2  8  1  0
  8  9  2  0
  8 10  1  0
  4 11  1  0
 11 12  1  0
 11 13  1  0
 11 14  1  0
  1  2  2  0
  2  5  1  0
  5  6  2  0
  6  4  1  0
  4  3  2  0
  3  1  1  0
M  END

$$$$
