No_414-gen_results/8p0m/2024-11-27-11-27-31/
     RDKit          3D

 21 21  0  0  0  0  0  0  0  0999 V2000
  -28.0162   -0.8135   28.8779 C   0  0  0  0  0  0  0  0  0  0  0  0
  -27.0636   -0.1189   28.6079 C   0  0  0  0  0  0  0  0  0  0  0  0
  -25.7647   -0.3897   29.0360 C   0  0  0  0  0  0  0  0  0  0  0  0
  -24.5516    0.4058   28.7646 C   0  0  0  0  0  0  0  0  0  0  0  0
  -24.6957    1.4480   27.7988 C   0  0  0  0  0  0  0  0  0  0  0  0
  -26.0010    1.6784   27.2965 C   0  0  0  0  0  0  0  0  0  0  0  0
  -27.0736    0.9682   27.6500 C   0  0  0  0  0  0  0  0  0  0  0  0
  -28.6416   -0.4618   30.2155 C   0  0  0  0  0  0  0  0  0  0  0  0
  -28.4349    0.4326   30.8158 O   0  0  0  0  0  0  0  0  0  0  0  0
  -29.5693   -1.5085   30.6752 N   0  0  0  0  0  0  0  0  0  0  0  0
  -23.5189    2.2275   27.4818 C   0  0  0  0  0  0  0  0  0  0  0  0
  -23.6487    2.9976   26.6003 F   0  0  0  0  0  0  0  0  0  0  0  0
  -22.4261    1.4269   27.0874 F   0  0  0  0  0  0  0  0  0  0  0  0
  -23.0712    2.8862   28.5701 F   0  0  0  0  0  0  0  0  0  0  0  0
  -29.9300   -2.6487   30.0381 C   0  0  0  0  0  0  0  0  0  0  0  0
  -30.2103   -1.2867   32.0326 C   0  0  0  0  0  0  0  0  0  0  0  0
  -29.7532   -3.5999   30.9371 C   0  0  0  0  0  0  0  0  0  0  0  0
  -30.4957   -3.7269   31.9658 O   0  0  0  0  0  0  0  0  0  0  0  0
  -29.1576   -4.8262   30.5276 O   0  0  0  0  0  0  0  0  0  0  0  0
  -31.2139   -1.2160   31.9853 C   0  0  0  0  0  0  0  0  0  0  0  0
  -31.9344   -1.9434   32.7625 C   0  0  0  0  0  0  0  0  0  0  0  0
  1  8  1  0
  8  9  2  0
  8 10  1  0
  5 11  1  0
 11 12  1  0
 11 13  1  0
 11 14  1  0
 10 15  1  0
 10 16  1  0
 15 17  1  0
 17 18  2  0
 17 19  1  0
 16 20  1  0
 20 21  2  0
  1  2  1  0
  2  3  2  0
  3  4  1  0
  4  5  2  0
  5  6  1  0
  6  7  2  0
  7  2  1  0
M  END

$$$$
