No_4200-gen_results/8p0m/2024-11-27-11-27-31/
     RDKit          3D

 18 19  0  0  0  0  0  0  0  0999 V2000
  -28.0162   -0.8135   28.8779 C   0  0  0  0  0  0  0  0  0  0  0  0
  -28.4690   -0.7850   29.8287 C   0  0  0  0  0  0  0  0  0  0  0  0
  -28.1960    0.3478   28.0550 C   0  0  0  0  0  0  0  0  0  0  0  0
  -29.0191    1.3501   28.3782 C   0  0  0  0  0  0  0  0  0  0  0  0
  -29.4107    0.1803   30.3782 C   0  0  0  0  0  0  0  0  0  0  0  0
  -29.6059    1.2495   29.6193 C   0  0  0  0  0  0  0  0  0  0  0  0
  -27.4478    0.3799   26.7122 C   0  0  0  0  0  0  0  0  0  0  0  0
  -25.9806    0.2548   26.7837 C   0  0  0  0  0  0  0  0  0  0  0  0
  -25.2376    1.2324   27.4671 C   0  0  0  0  0  0  0  0  0  0  0  0
  -24.4098    1.0416   28.3664 C   0  0  0  0  0  0  0  0  0  0  0  0
  -23.2854    1.8577   28.5753 C   0  0  0  0  0  0  0  0  0  0  0  0
  -22.2114    1.4279   29.2647 C   0  0  0  0  0  0  0  0  0  0  0  0
  -24.9939    2.4194   26.6234 C   0  0  0  0  0  0  0  0  0  0  0  0
  -22.2994    0.2210   29.9834 C   0  0  0  0  0  0  0  0  0  0  0  0
  -23.3265   -0.6323   29.8164 C   0  0  0  0  0  0  0  0  0  0  0  0
  -24.3492   -0.2817   28.9317 C   0  0  0  0  0  0  0  0  0  0  0  0
  -28.1475    0.5659   25.5445 C   0  0  0  0  0  0  0  0  0  0  0  0
  -28.9564    1.3435   25.3779 O   0  0  0  0  0  0  0  0  0  0  0  0
  3  7  1  0
  7  8  1  0
  8  9  1  0
  9 10  1  0
  9 13  1  0
  7 17  1  0
 17 18  2  0
 10 11  2  0
 11 12  1  0
 12 14  2  0
 14 15  1  0
 15 16  2  0
 16 10  1  0
  1  2  2  0
  2  5  1  0
  5  6  2  0
  6  4  1  0
  4  3  2  0
  3  1  1  0
M  END

$$$$
