No_4482-gen_results/8p0m/2024-11-27-11-27-31/
     RDKit          3D

 19 20  0  0  0  0  0  0  0  0999 V2000
  -28.0162   -0.8135   28.8779 C   0  0  0  0  0  0  0  0  0  0  0  0
  -28.4690   -0.7850   29.8287 C   0  0  0  0  0  0  0  0  0  0  0  0
  -26.5042   -0.7777   28.8766 C   0  0  0  0  0  0  0  0  0  0  0  0
  -25.6540   -0.6597   27.7191 C   0  0  0  0  0  0  0  0  0  0  0  0
  -27.9180   -0.9374   31.1824 C   0  0  0  0  0  0  0  0  0  0  0  0
  -26.5423   -0.9399   31.2606 C   0  0  0  0  0  0  0  0  0  0  0  0
  -25.7832   -0.8935   30.1201 C   0  0  0  0  0  0  0  0  0  0  0  0
  -25.2393    0.5761   27.4012 N   0  0  0  0  0  0  0  0  0  0  0  0
  -25.4184    1.0491   26.1661 C   0  0  0  0  0  0  0  0  0  0  0  0
  -23.9088    0.9378   27.7954 C   0  0  0  0  0  0  0  0  0  0  0  0
  -23.4972    1.9410   28.0813 C   0  0  0  0  0  0  0  0  0  0  0  0
  -23.6731    2.9110   26.8773 C   0  0  0  0  0  0  0  0  0  0  0  0
  -24.9107    2.5272   26.0933 C   0  0  0  0  0  0  0  0  0  0  0  0
  -30.0534   -0.7508   29.8759 C   0  0  0  0  0  0  0  0  0  0  0  0
  -30.6666    0.0869   30.6886 O   0  0  0  0  0  0  0  0  0  0  0  0
  -30.6641   -1.4228   29.0698 O   0  0  0  0  0  0  0  0  0  0  0  0
  -26.0697    0.6617   25.2758 O   0  0  0  0  0  0  0  0  0  0  0  0
  -25.0758   -1.6081   27.2778 O   0  0  0  0  0  0  0  0  0  0  0  0
  -22.4958    2.3895   28.8245 O   0  0  0  0  0  0  0  0  0  0  0  0
  3  4  1  0
  4  8  1  0
  8  9  1  0
  8 10  1  0
 11 12  1  0
  9 13  1  0
 12 13  1  0
  2 14  1  0
 14 15  2  0
 14 16  1  0
  9 17  2  0
  4 18  2  0
 11 19  1  0
 11 10  1  0
  1  2  2  0
  2  5  1  0
  5  6  2  0
  6  7  1  0
  7  3  2  0
  3  1  1  0
M  END

$$$$
