No_4948-gen_results/8p0m/2024-11-27-11-27-31/
     RDKit          3D

 31 34  0  0  0  0  0  0  0  0999 V2000
  -28.0162   -0.8135   28.8779 C   0  0  0  0  0  0  0  0  0  0  0  0
  -28.4690   -0.7850   29.8287 C   0  0  0  0  0  0  0  0  0  0  0  0
  -27.1356    0.2359   28.5352 C   0  0  0  0  0  0  0  0  0  0  0  0
  -26.8745    1.2825   29.3982 C   0  0  0  0  0  0  0  0  0  0  0  0
  -28.3613    0.1987   30.9244 C   0  0  0  0  0  0  0  0  0  0  0  0
  -27.5277    1.2234   30.6356 C   0  0  0  0  0  0  0  0  0  0  0  0
  -26.4794    0.2574   27.3632 F   0  0  0  0  0  0  0  0  0  0  0  0
  -29.0697    0.0996   32.2304 C   0  0  0  0  0  0  0  0  0  0  0  0
  -28.5845    0.6528   33.1524 N   0  0  0  0  0  0  0  0  0  0  0  0
  -30.2518   -0.2954   32.1899 O   0  0  0  0  0  0  0  0  0  0  0  0
  -27.3086    1.3014   33.3183 C   0  0  0  0  0  0  0  0  0  0  0  0
  -26.7269    2.1893   32.4983 C   0  0  0  0  0  0  0  0  0  0  0  0
  -26.7151    2.1490   31.4590 C   0  0  0  0  0  0  0  0  0  0  0  0
  -25.8108    3.0912   30.6159 C   0  0  0  0  0  0  0  0  0  0  0  0
  -25.3617    3.0545   29.5151 O   0  0  0  0  0  0  0  0  0  0  0  0
  -25.5476    4.2940   31.3592 N   0  0  0  0  0  0  0  0  0  0  0  0
  -24.7665    5.3491   30.8153 C   0  0  0  0  0  0  0  0  0  0  0  0
  -24.8036    6.4730   31.8011 C   0  0  0  0  0  0  0  0  0  0  0  0
  -25.2726    7.5811   31.4605 C   0  0  0  0  0  0  0  0  0  0  0  0
  -26.1278    7.6914   30.4578 C   0  0  0  0  0  0  0  0  0  0  0  0
  -26.0500    6.7304   29.3964 C   0  0  0  0  0  0  0  0  0  0  0  0
  -25.2098    5.7407   29.5271 C   0  0  0  0  0  0  0  0  0  0  0  0
  -24.3459    6.1837   33.1428 C   0  0  0  0  0  0  0  0  0  0  0  0
  -25.1016    6.7092   34.1620 C   0  0  0  0  0  0  0  0  0  0  0  0
  -22.4794    6.5592   33.3289 Br  0  0  0  0  0  0  0  0  0  0  0  0
  -26.3842    6.6321   34.0539 C   0  0  0  0  0  0  0  0  0  0  0  0
  -27.1520    6.8646   35.2517 C   0  0  0  0  0  0  0  0  0  0  0  0
  -28.6006    6.7037   35.2651 C   0  0  0  0  0  0  0  0  0  0  0  0
  -29.1882    6.3950   34.0301 C   0  0  0  0  0  0  0  0  0  0  0  0
  -28.4674    6.1607   32.8713 C   0  0  0  0  0  0  0  0  0  0  0  0
  -27.1514    6.2791   32.9405 C   0  0  0  0  0  0  0  0  0  0  0  0
  3  7  1  0
  5  8  1  0
  8  9  1  0
  8 10  2  0
  9 11  1  0
 11 12  2  0
  6 13  1  0
 12 13  1  0
 13 14  1  0
 14 15  2  0
 14 16  1  0
 16 17  1  0
 18 23  1  0
 23 24  1  0
 23 25  1  0
 24 26  1  0
 17 18  1  0
 18 19  2  0
 19 20  1  0
 20 21  2  0
 21 22  1  0
 22 17  2  0
  1  2  2  0
  2  5  1  0
  5  6  2  0
  6  4  1  0
  4  3  2  0
  3  1  1  0
 26 27  2  0
 27 28  1  0
 28 29  2  0
 29 30  1  0
 30 31  2  0
 31 26  1  0
M  END

$$$$
