No_4584-gen_results/8p0m/2024-11-27-11-27-31/
     RDKit          3D

  9  8  0  0  0  0  0  0  0  0999 V2000
  -28.0727   -1.2542   28.5316 F   0  0  0  0  0  0  0  0  0  0  0  0
  -28.2662   -0.4214   29.1931 C   0  0  0  0  0  0  0  0  0  0  0  0
  -27.4413   -0.2944   30.1102 F   0  0  0  0  0  0  0  0  0  0  0  0
  -28.3588    0.8955   28.4382 C   0  0  0  0  0  0  0  0  0  0  0  0
  -28.9230    0.9755   27.3889 C   0  0  0  0  0  0  0  0  0  0  0  0
  -29.3787    1.8437   26.6434 C   0  0  0  0  0  0  0  0  0  0  0  0
  -30.0201    1.7374   25.3381 C   0  0  0  0  0  0  0  0  0  0  0  0
  -30.0033    0.4724   24.7704 C   0  0  0  0  0  0  0  0  0  0  0  0
  -29.4546   -0.5974   25.4552 C   0  0  0  0  0  0  0  0  0  0  0  0
  1  2  1  0
  2  3  1  0
  2  4  1  0
  4  5  2  3
  5  6  1  0
  6  7  1  0
  7  8  2  3
  8  9  1  0
M  END

$$$$
