No_4197-gen_results/8p0m/2024-11-27-11-27-31/
     RDKit          3D

 35 37  0  0  0  0  0  0  0  0999 V2000
  -28.1229   -1.3353   28.4874 O   0  0  0  0  0  0  0  0  0  0  0  0
  -27.0637   -0.8242   28.8687 C   0  0  0  0  0  0  0  0  0  0  0  0
  -26.4446   -0.0097   28.8266 N   0  0  0  0  0  0  0  0  0  0  0  0
  -26.1457   -2.0744   29.6687 C   0  0  0  0  0  0  0  0  0  0  0  0
  -27.0113    1.2549   28.2335 C   0  0  0  0  0  0  0  0  0  0  0  0
  -26.8778    2.3096   28.6747 C   0  0  0  0  0  0  0  0  0  0  0  0
  -25.6439    2.6743   29.4298 C   0  0  0  0  0  0  0  0  0  0  0  0
  -24.8323    1.5352   29.8124 C   0  0  0  0  0  0  0  0  0  0  0  0
  -25.2838    0.3019   29.5762 C   0  0  0  0  0  0  0  0  0  0  0  0
  -25.4062   -2.5886   29.1873 C   0  0  0  0  0  0  0  0  0  0  0  0
  -25.0155   -3.9516   29.6735 C   0  0  0  0  0  0  0  0  0  0  0  0
  -24.0881   -4.6405   28.8482 C   0  0  0  0  0  0  0  0  0  0  0  0
  -24.0986   -5.0872   27.9072 N   0  0  0  0  0  0  0  0  0  0  0  0
  -23.4732    1.8635   30.8162 Cl  0  0  0  0  0  0  0  0  0  0  0  0
  -26.9356   -2.4240   30.8300 N   0  0  0  0  0  0  0  0  0  0  0  0
  -28.2402   -2.1762   31.0688 C   0  0  0  0  0  0  0  0  0  0  0  0
  -29.0016   -3.2586   31.6421 C   0  0  0  0  0  0  0  0  0  0  0  0
  -30.2905   -3.2189   31.2482 C   0  0  0  0  0  0  0  0  0  0  0  0
  -30.9528   -4.3014   30.7665 C   0  0  0  0  0  0  0  0  0  0  0  0
  -30.4531   -5.4785   30.9577 C   0  0  0  0  0  0  0  0  0  0  0  0
  -29.0658   -5.5951   31.4140 C   0  0  0  0  0  0  0  0  0  0  0  0
  -28.3332   -4.4636   31.5560 C   0  0  0  0  0  0  0  0  0  0  0  0
  -28.9590   -2.8934   33.2036 C   0  0  0  0  0  0  0  0  0  0  0  0
  -29.2427   -1.5337   33.5489 C   0  0  0  0  0  0  0  0  0  0  0  0
  -29.9277   -0.8928   32.9188 O   0  0  0  0  0  0  0  0  0  0  0  0
  -28.4373   -0.9868   34.4609 N   0  0  0  0  0  0  0  0  0  0  0  0
  -27.5527   -1.5800   35.3659 C   0  0  0  0  0  0  0  0  0  0  0  0
  -28.5658    0.5100   34.6796 C   0  0  0  0  0  0  0  0  0  0  0  0
  -32.3698   -4.2801   30.2628 C   0  0  0  0  0  0  0  0  0  0  0  0
  -32.7187   -4.9665   29.3524 C   0  0  0  0  0  0  0  0  0  0  0  0
  -34.0328   -4.9004   28.6870 C   0  0  0  0  0  0  0  0  0  0  0  0
  -34.8675   -3.9104   29.1693 C   0  0  0  0  0  0  0  0  0  0  0  0
  -34.5005   -3.0700   30.1704 C   0  0  0  0  0  0  0  0  0  0  0  0
  -33.2308   -3.1339   30.7394 C   0  0  0  0  0  0  0  0  0  0  0  0
  -35.4323   -2.0251   30.6473 C   0  0  0  0  0  0  0  0  0  0  0  0
  1  2  2  0
  2  3  1  0
  2  4  1  0
  3  5  1  0
  6  7  1  0
  3  9  1  0
  8  9  1  0
  4 10  2  3
 10 11  1  0
 11 12  1  0
 12 13  1  0
  8 14  1  0
  4 15  1  0
 15 16  1  0
 16 17  1  0
 17 18  1  0
 18 19  1  0
 19 20  1  0
 17 22  1  0
 21 22  1  0
 17 23  1  0
 23 24  1  0
 24 25  2  0
 24 26  1  0
 26 27  1  0
 26 28  1  0
 19 29  1  0
 33 35  1  0
  5  6  1  0
  7  8  1  0
 20 21  1  0
 29 30  2  0
 30 31  1  0
 31 32  2  0
 32 33  1  0
 33 34  2  0
 34 29  1  0
M  END

$$$$
