No_4727-gen_results/8p0m/2024-11-27-11-27-31/
     RDKit          3D

 17 17  0  0  0  0  0  0  0  0999 V2000
  -28.0162   -0.8135   28.8779 C   0  0  0  0  0  0  0  0  0  0  0  0
  -27.0636   -0.1189   28.6079 C   0  0  0  0  0  0  0  0  0  0  0  0
  -27.0010    0.6913   27.4910 C   0  0  0  0  0  0  0  0  0  0  0  0
  -25.8548    1.4825   27.0830 C   0  0  0  0  0  0  0  0  0  0  0  0
  -24.6901    1.4526   27.8807 C   0  0  0  0  0  0  0  0  0  0  0  0
  -24.7379    0.6010   29.0416 C   0  0  0  0  0  0  0  0  0  0  0  0
  -25.8234   -0.1688   29.3887 C   0  0  0  0  0  0  0  0  0  0  0  0
  -27.9524   -1.6294   30.0643 N   0  0  0  0  0  0  0  0  0  0  0  0
  -29.0363   -2.3695   30.4865 C   0  0  0  0  0  0  0  0  0  0  0  0
  -28.7283   -3.6343   31.2329 C   0  0  0  0  0  0  0  0  0  0  0  0
  -29.6144   -4.5682   30.6479 F   0  0  0  0  0  0  0  0  0  0  0  0
  -27.5018   -4.0597   30.8577 F   0  0  0  0  0  0  0  0  0  0  0  0
  -28.8911   -3.5276   32.4635 F   0  0  0  0  0  0  0  0  0  0  0  0
  -23.5168    2.2046   27.5748 C   0  0  0  0  0  0  0  0  0  0  0  0
  -22.4090    1.9867   28.1275 O   0  0  0  0  0  0  0  0  0  0  0  0
  -23.4306    2.7522   26.3216 O   0  0  0  0  0  0  0  0  0  0  0  0
  -29.1408   -0.7044   28.4379 O   0  0  0  0  0  0  0  0  0  0  0  0
  1  2  1  0
  1  8  1  0
  8  9  2  3
  9 10  1  0
 10 11  1  0
 10 12  1  0
 10 13  1  0
  5 14  1  0
 14 15  2  0
 14 16  1  0
  1 17  2  0
  2  3  2  0
  3  4  1  0
  4  5  2  0
  5  6  1  0
  6  7  2  0
  7  2  1  0
M  END

$$$$
