No_4617-gen_results/8p0m/2024-11-27-11-27-31/
     RDKit          3D

 27 30  0  0  0  0  0  0  0  0999 V2000
  -28.0162   -0.8135   28.8779 C   0  0  0  0  0  0  0  0  0  0  0  0
  -28.4690   -0.7850   29.8287 C   0  0  0  0  0  0  0  0  0  0  0  0
  -28.1960    0.3478   28.0550 C   0  0  0  0  0  0  0  0  0  0  0  0
  -29.0191    1.3501   28.3782 C   0  0  0  0  0  0  0  0  0  0  0  0
  -29.4107    0.1803   30.3782 C   0  0  0  0  0  0  0  0  0  0  0  0
  -29.2236    2.4924   27.5425 C   0  0  0  0  0  0  0  0  0  0  0  0
  -29.5873    1.2242   29.6185 C   0  0  0  0  0  0  0  0  0  0  0  0
  -29.5078    2.5667   26.4959 C   0  0  0  0  0  0  0  0  0  0  0  0
  -29.6683    3.8182   25.6422 C   0  0  0  0  0  0  0  0  0  0  0  0
  -29.4131    5.0479   26.2727 C   0  0  0  0  0  0  0  0  0  0  0  0
  -29.0181    5.0217   27.5715 C   0  0  0  0  0  0  0  0  0  0  0  0
  -28.8795    3.8374   28.2471 C   0  0  0  0  0  0  0  0  0  0  0  0
  -27.5600    0.4861   26.8520 O   0  0  0  0  0  0  0  0  0  0  0  0
  -26.1660    0.3431   26.9527 C   0  0  0  0  0  0  0  0  0  0  0  0
  -25.3820    1.5203   27.1531 C   0  0  0  0  0  0  0  0  0  0  0  0
  -24.0603    1.3524   27.4381 C   0  0  0  0  0  0  0  0  0  0  0  0
  -23.5857    0.3269   28.2861 C   0  0  0  0  0  0  0  0  0  0  0  0
  -24.4420   -0.8591   28.2516 C   0  0  0  0  0  0  0  0  0  0  0  0
  -25.7818   -0.5581   28.1434 C   0  0  0  0  0  0  0  0  0  0  0  0
  -26.7616   -1.2866   28.8247 C   0  0  0  0  0  0  0  0  0  0  0  0
  -25.6746   -0.2476   25.6728 C   0  0  0  0  0  0  0  0  0  0  0  0
  -23.0483    2.3472   26.9837 C   0  0  0  0  0  0  0  0  0  0  0  0
  -23.5339    3.2214   26.1950 N   0  0  0  0  0  0  0  0  0  0  0  0
  -21.3630    2.0445   27.2233 P   0  0  0  0  0  0  0  0  0  0  0  0
  -21.0517    2.7493   28.5423 O   0  0  0  0  0  0  0  0  0  0  0  0
  -21.4746    0.5352   27.5340 O   0  0  0  0  0  0  0  0  0  0  0  0
  -20.7724    2.2650   26.2914 O   0  0  0  0  0  0  0  0  0  0  0  0
  4  6  1  0
  3 13  1  0
 13 14  1  0
 14 15  1  0
 15 16  1  0
 17 18  1  0
 14 19  1  0
 18 19  1  0
  1 20  1  0
 19 20  1  0
 14 21  1  0
 16 22  1  0
 22 23  1  0
 22 24  1  0
 24 25  1  0
 24 26  1  0
 24 27  2  0
 16 17  1  0
  6  8  2  0
  8  9  1  0
  9 10  2  0
 10 11  1  0
 11 12  2  0
 12  6  1  0
  1  2  2  0
  2  5  1  0
  5  7  2  0
  7  4  1  0
  4  3  2  0
  3  1  1  0
M  END

$$$$
