No_4242-gen_results/8p0m/2024-11-27-11-27-31/
     RDKit          3D

 24 27  0  0  0  0  0  0  0  0999 V2000
  -28.0162   -0.8135   28.8779 C   0  0  0  0  0  0  0  0  0  0  0  0
  -28.4690   -0.7850   29.8287 C   0  0  0  0  0  0  0  0  0  0  0  0
  -26.5455   -0.8762   28.8500 C   0  0  0  0  0  0  0  0  0  0  0  0
  -25.8041   -1.0324   30.0571 C   0  0  0  0  0  0  0  0  0  0  0  0
  -27.9437   -0.9869   31.2075 C   0  0  0  0  0  0  0  0  0  0  0  0
  -26.5825   -1.0386   31.2231 C   0  0  0  0  0  0  0  0  0  0  0  0
  -30.0606   -0.7371   29.9024 C   0  0  0  0  0  0  0  0  0  0  0  0
  -30.6577    0.4233   30.3731 C   0  0  0  0  0  0  0  0  0  0  0  0
  -30.0086    1.3899   30.6447 C   0  0  0  0  0  0  0  0  0  0  0  0
  -30.0911    2.5386   30.8418 C   0  0  0  0  0  0  0  0  0  0  0  0
  -29.1579    3.6314   31.2468 C   0  0  0  0  0  0  0  0  0  0  0  0
  -27.7946    3.2102   31.3045 C   0  0  0  0  0  0  0  0  0  0  0  0
  -27.5198    1.8889   31.0542 C   0  0  0  0  0  0  0  0  0  0  0  0
  -28.4752    1.0310   30.8039 C   0  0  0  0  0  0  0  0  0  0  0  0
  -28.2320   -0.0444   31.3441 C   0  0  0  0  0  0  0  0  0  0  0  0
  -29.3198   -0.1995   32.2187 C   0  0  0  0  0  0  0  0  0  0  0  0
  -30.2617   -0.9936   32.4411 C   0  0  0  0  0  0  0  0  0  0  0  0
  -28.8418    0.6148   33.4679 C   0  0  0  0  0  0  0  0  0  0  0  0
  -28.0360    0.0922   34.3945 C   0  0  0  0  0  0  0  0  0  0  0  0
  -27.6332   -1.2003   34.5005 C   0  0  0  0  0  0  0  0  0  0  0  0
  -26.7443   -1.6204   35.4885 C   0  0  0  0  0  0  0  0  0  0  0  0
  -26.2641   -0.7187   36.4572 C   0  0  0  0  0  0  0  0  0  0  0  0
  -27.5026    1.0181   35.4147 C   0  0  0  0  0  0  0  0  0  0  0  0
  -26.6474    0.6017   36.4292 C   0  0  0  0  0  0  0  0  0  0  0  0
  2  7  1  0
  7  8  1  0
  8  9  1  0
  5 15  1  0
 14 15  1  0
 15 16  1  0
 16 17  2  0
 16 18  1  0
 18 19  1  0
  9 10  2  0
 10 11  1  0
 11 12  2  0
 12 13  1  0
 13 14  2  0
 14  9  1  0
  1  2  2  0
  2  5  1  0
  5  6  2  0
  6  4  1  0
  4  3  2  0
  3  1  1  0
 19 20  2  0
 20 21  1  0
 21 22  2  0
 22 24  1  0
 24 23  2  0
 23 19  1  0
M  END

$$$$
