No_4656-gen_results/8p0m/2024-11-27-11-27-31/
     RDKit          3D

 19 20  0  0  0  0  0  0  0  0999 V2000
  -28.0162   -0.8135   28.8779 C   0  0  0  0  0  0  0  0  0  0  0  0
  -27.0636   -0.1190   28.6079 C   0  0  0  0  0  0  0  0  0  0  0  0
  -26.9716    0.7139   27.5060 C   0  0  0  0  0  0  0  0  0  0  0  0
  -28.1053    0.7744   26.6421 C   0  0  0  0  0  0  0  0  0  0  0  0
  -29.2008    0.1044   27.0527 C   0  0  0  0  0  0  0  0  0  0  0  0
  -28.0219   -1.5899   30.0879 C   0  0  0  0  0  0  0  0  0  0  0  0
  -29.1640   -0.6394   28.1484 C   0  0  0  0  0  0  0  0  0  0  0  0
  -27.0234   -2.3569   30.3744 N   0  0  0  0  0  0  0  0  0  0  0  0
  -28.8679   -1.4799   31.0055 O   0  0  0  0  0  0  0  0  0  0  0  0
  -30.3732    0.2104   26.1620 C   0  0  0  0  0  0  0  0  0  0  0  0
  -30.3407    0.3909   24.9531 N   0  0  0  0  0  0  0  0  0  0  0  0
  -31.5160   -0.0794   26.7042 O   0  0  0  0  0  0  0  0  0  0  0  0
  -25.8542   -2.5161   29.5388 C   0  0  0  0  0  0  0  0  0  0  0  0
  -24.7772   -1.6908   29.7830 C   0  0  0  0  0  0  0  0  0  0  0  0
  -23.5877   -1.9138   28.9945 C   0  0  0  0  0  0  0  0  0  0  0  0
  -24.7346   -0.7805   30.9165 C   0  0  0  0  0  0  0  0  0  0  0  0
  -22.5031   -1.0226   29.1815 C   0  0  0  0  0  0  0  0  0  0  0  0
  -23.5498    0.0311   31.0962 C   0  0  0  0  0  0  0  0  0  0  0  0
  -22.4419   -0.1163   30.2244 C   0  0  0  0  0  0  0  0  0  0  0  0
  1  6  1  0
  6  8  1  0
  6  9  2  0
  5 10  1  0
 10 11  1  0
 10 12  2  0
  8 13  1  0
 13 14  1  0
  1  2  2  0
  2  3  1  0
  3  4  2  0
  4  5  1  0
  5  7  2  0
  7  1  1  0
 14 15  2  0
 15 17  1  0
 17 19  2  0
 19 18  1  0
 18 16  2  0
 16 14  1  0
M  END

$$$$
