No_4941-gen_results/8p0m/2024-11-27-11-27-31/
     RDKit          3D

 35 38  0  0  0  0  0  0  0  0999 V2000
  -28.0162   -0.8135   28.8779 C   0  0  0  0  0  0  0  0  0  0  0  0
  -28.4690   -0.7850   29.8287 C   0  0  0  0  0  0  0  0  0  0  0  0
  -26.5042   -0.7777   28.8766 C   0  0  0  0  0  0  0  0  0  0  0  0
  -25.6540   -0.6597   27.7191 C   0  0  0  0  0  0  0  0  0  0  0  0
  -27.9180   -0.9374   31.1824 C   0  0  0  0  0  0  0  0  0  0  0  0
  -26.5424   -0.9399   31.2606 C   0  0  0  0  0  0  0  0  0  0  0  0
  -25.7832   -0.8935   30.1201 C   0  0  0  0  0  0  0  0  0  0  0  0
  -25.2134    0.6923   27.3830 C   0  0  0  0  0  0  0  0  0  0  0  0
  -23.9202    0.9215   27.7698 C   0  0  0  0  0  0  0  0  0  0  0  0
  -23.1557    0.4097   28.7608 C   0  0  0  0  0  0  0  0  0  0  0  0
  -21.7718    0.6605   28.9557 C   0  0  0  0  0  0  0  0  0  0  0  0
  -21.1031    1.4706   28.0703 C   0  0  0  0  0  0  0  0  0  0  0  0
  -23.1513    1.8543   26.8178 C   0  0  0  0  0  0  0  0  0  0  0  0
  -21.7871    2.0480   27.0006 C   0  0  0  0  0  0  0  0  0  0  0  0
  -26.0094    1.5476   26.6874 C   0  0  0  0  0  0  0  0  0  0  0  0
  -26.5151    1.1050   25.4680 C   0  0  0  0  0  0  0  0  0  0  0  0
  -27.7595    1.6345   25.0607 C   0  0  0  0  0  0  0  0  0  0  0  0
  -26.3076    2.8075   27.2213 C   0  0  0  0  0  0  0  0  0  0  0  0
  -27.4546    3.5324   26.6528 C   0  0  0  0  0  0  0  0  0  0  0  0
  -28.0839    2.9610   25.5041 C   0  0  0  0  0  0  0  0  0  0  0  0
  -25.7409    3.4277   28.3854 C   0  0  0  0  0  0  0  0  0  0  0  0
  -26.7239    3.8956   29.3733 C   0  0  0  0  0  0  0  0  0  0  0  0
  -27.0711    3.1144   30.2494 C   0  0  0  0  0  0  0  0  0  0  0  0
  -26.2355    3.0028   31.4704 C   0  0  0  0  0  0  0  0  0  0  0  0
  -26.7933    2.4481   32.6493 C   0  0  0  0  0  0  0  0  0  0  0  0
  -28.5013    3.4071   30.7967 C   0  0  0  0  0  0  0  0  0  0  0  0
  -29.0189    2.6799   31.9711 C   0  0  0  0  0  0  0  0  0  0  0  0
  -28.0678    2.7811   33.0905 C   0  0  0  0  0  0  0  0  0  0  0  0
  -30.0818   -0.7444   29.8955 C   0  0  0  0  0  0  0  0  0  0  0  0
  -30.6809   -0.7495   30.8948 O   0  0  0  0  0  0  0  0  0  0  0  0
  -30.5431   -0.2326   28.8028 O   0  0  0  0  0  0  0  0  0  0  0  0
  -26.9779    5.3198   29.2906 C   0  0  0  0  0  0  0  0  0  0  0  0
  -26.1531    6.1701   28.8142 C   0  0  0  0  0  0  0  0  0  0  0  0
  -24.9777    6.3231   28.9007 C   0  0  0  0  0  0  0  0  0  0  0  0
  -24.1862    7.4152   28.2524 C   0  0  0  0  0  0  0  0  0  0  0  0
  3  4  1  0
  4  8  1  0
  8  9  1  0
  8 15  1  0
 18 21  1  0
 21 22  1  0
 22 23  1  0
  2 29  1  0
 29 30  2  0
 29 31  1  0
 22 32  1  0
 32 33  1  0
 33 34  2  3
 34 35  1  0
 15 16  2  0
 16 17  1  0
 17 20  2  0
 20 19  1  0
 19 18  2  0
 18 15  1  0
 23 24  2  0
 24 25  1  0
 25 28  2  0
 28 27  1  0
 27 26  2  0
 26 23  1  0
  1  2  2  0
  2  5  1  0
  5  6  2  0
  6  7  1  0
  7  3  2  0
  3  1  1  0
  9 10  2  0
 10 11  1  0
 11 12  2  0
 12 14  1  0
 14 13  2  0
 13  9  1  0
M  END

$$$$
