No_4259-gen_results/8p0m/2024-11-27-11-27-31/
     RDKit          3D

 23 24  0  0  0  0  0  0  0  0999 V2000
  -28.0162   -0.8135   28.8779 C   0  0  0  0  0  0  0  0  0  0  0  0
  -27.0636   -0.1190   28.6079 C   0  0  0  0  0  0  0  0  0  0  0  0
  -25.7923   -0.4302   29.0761 C   0  0  0  0  0  0  0  0  0  0  0  0
  -24.5456    0.3494   28.8225 C   0  0  0  0  0  0  0  0  0  0  0  0
  -24.6586    1.4196   27.8878 C   0  0  0  0  0  0  0  0  0  0  0  0
  -25.9471    1.6811   27.3792 C   0  0  0  0  0  0  0  0  0  0  0  0
  -27.0439    0.9739   27.6871 C   0  0  0  0  0  0  0  0  0  0  0  0
  -28.5329   -0.5551   30.0098 F   0  0  0  0  0  0  0  0  0  0  0  0
  -28.9355   -1.0473   28.1091 F   0  0  0  0  0  0  0  0  0  0  0  0
  -23.4582    2.1498   27.6024 C   0  0  0  0  0  0  0  0  0  0  0  0
  -22.2634    1.7711   28.1053 N   0  0  0  0  0  0  0  0  0  0  0  0
  -23.3972    2.7985   26.4732 O   0  0  0  0  0  0  0  0  0  0  0  0
  -22.0715    0.9176   29.1304 C   0  0  0  0  0  0  0  0  0  0  0  0
  -23.2511    0.0354   29.4653 C   0  0  0  0  0  0  0  0  0  0  0  0
  -23.0874   -0.9799   30.4502 C   0  0  0  0  0  0  0  0  0  0  0  0
  -22.6590   -0.6813   31.5355 O   0  0  0  0  0  0  0  0  0  0  0  0
  -23.3583   -2.2221   30.0900 O   0  0  0  0  0  0  0  0  0  0  0  0
  -26.0966    2.8314   26.4451 C   0  0  0  0  0  0  0  0  0  0  0  0
  -27.2350    3.2139   26.1301 C   0  0  0  0  0  0  0  0  0  0  0  0
  -28.0565    2.6892   25.4969 C   0  0  0  0  0  0  0  0  0  0  0  0
  -29.3574    3.2205   25.0278 C   0  0  0  0  0  0  0  0  0  0  0  0
  -29.6450    4.5060   25.5070 C   0  0  0  0  0  0  0  0  0  0  0  0
  -30.8726    5.1284   25.2149 C   0  0  0  0  0  0  0  0  0  0  0  0
  1  2  1  0
  1  8  1  0
  1  9  1  0
  5 10  1  0
 10 11  1  0
 10 12  2  0
  4 14  1  0
 13 14  1  0
 14 15  1  0
 15 16  2  0
 15 17  1  0
  6 18  1  0
 18 19  2  3
 19 20  1  0
 20 21  2  3
 21 22  1  0
 22 23  2  0
 13 11  1  0
  2  3  2  0
  3  4  1  0
  4  5  2  0
  5  6  1  0
  6  7  2  0
  7  2  1  0
M  END

$$$$
