No_4400-gen_results/8p0m/2024-11-27-11-27-31/
     RDKit          3D

 10  9  0  0  0  0  0  0  0  0999 V2000
  -28.0162   -0.8135   28.8779 C   0  0  0  0  0  0  0  0  0  0  0  0
  -28.4690   -0.7850   29.8287 C   0  0  0  0  0  0  0  0  0  0  0  0
  -28.6541   -0.6744   27.8445 F   0  0  0  0  0  0  0  0  0  0  0  0
  -27.7274   -1.0138   31.1384 C   0  0  0  0  0  0  0  0  0  0  0  0
  -26.3130   -1.1081   31.0634 C   0  0  0  0  0  0  0  0  0  0  0  0
  -25.7318   -1.1346   29.7725 C   0  0  0  0  0  0  0  0  0  0  0  0
  -26.5830   -0.9531   28.7142 C   0  0  0  0  0  0  0  0  0  0  0  0
  -24.3094   -1.2717   29.6880 C   0  0  0  0  0  0  0  0  0  0  0  0
  -25.4963   -2.1723   29.8639 O   0  0  0  0  0  0  0  0  0  0  0  0
  -25.9832   -0.7531   27.4857 O   0  0  0  0  0  0  0  0  0  0  0  0
  1  2  2  3
  1  3  1  0
  2  4  1  0
  4  5  2  3
  5  6  1  0
  1  7  1  0
  6  8  1  0
  6  9  1  0
  7 10  1  0
M  END

$$$$
