No_4779-gen_results/8p0m/2024-11-27-11-27-31/
     RDKit          3D

 19 19  0  0  0  0  0  0  0  0999 V2000
  -28.0162   -0.8135   28.8779 C   0  0  0  0  0  0  0  0  0  0  0  0
  -28.4690   -0.7850   29.8287 C   0  0  0  0  0  0  0  0  0  0  0  0
  -27.0871    0.2903   28.6377 C   0  0  0  0  0  0  0  0  0  0  0  0
  -26.0238    0.3644   29.2526 C   0  0  0  0  0  0  0  0  0  0  0  0
  -27.5370   -0.6187   31.0883 C   0  0  0  0  0  0  0  0  0  0  0  0
  -26.3844    0.1834   30.8012 C   0  0  0  0  0  0  0  0  0  0  0  0
  -29.5100   -1.6195   30.2653 O   0  0  0  0  0  0  0  0  0  0  0  0
  -30.7241   -1.2384   29.8510 C   0  0  0  0  0  0  0  0  0  0  0  0
  -31.6591   -1.1794   30.8341 C   0  0  0  0  0  0  0  0  0  0  0  0
  -31.5925   -1.6824   31.8162 O   0  0  0  0  0  0  0  0  0  0  0  0
  -32.6988   -0.4240   30.5426 O   0  0  0  0  0  0  0  0  0  0  0  0
  -24.9214    1.3425   29.0903 C   0  0  0  0  0  0  0  0  0  0  0  0
  -24.0133    1.0038   28.1329 C   0  0  0  0  0  0  0  0  0  0  0  0
  -22.8762    1.8102   27.8142 C   0  0  0  0  0  0  0  0  0  0  0  0
  -24.7683    2.5772   29.7444 C   0  0  0  0  0  0  0  0  0  0  0  0
  -25.6739    2.9275   30.7336 N   0  0  0  0  0  0  0  0  0  0  0  0
  -21.8772    1.3332   27.0186 C   0  0  0  0  0  0  0  0  0  0  0  0
  -26.4164    3.9177   30.6830 C   0  0  0  0  0  0  0  0  0  0  0  0
  -27.2343    4.1856   31.8992 C   0  0  0  0  0  0  0  0  0  0  0  0
  2  7  1  0
  7  8  1  0
  8  9  1  0
  9 10  2  0
  9 11  1  0
  4 12  1  0
 12 13  1  0
 13 14  2  3
 12 15  1  0
 15 16  1  0
 14 17  1  0
 16 18  1  0
 18 19  2  0
  1  2  2  0
  2  5  1  0
  5  6  2  0
  6  4  1  0
  4  3  2  0
  3  1  1  0
M  END

$$$$
