No_4781-gen_results/8p0m/2024-11-27-11-27-31/
     RDKit          3D

 19 20  0  0  0  0  0  0  0  0999 V2000
  -28.0162   -0.8135   28.8779 C   0  0  0  0  0  0  0  0  0  0  0  0
  -28.4690   -0.7850   29.8287 C   0  0  0  0  0  0  0  0  0  0  0  0
  -27.0871    0.2903   28.6377 C   0  0  0  0  0  0  0  0  0  0  0  0
  -26.8317    1.2487   29.5869 C   0  0  0  0  0  0  0  0  0  0  0  0
  -28.3914    0.0801   31.0065 C   0  0  0  0  0  0  0  0  0  0  0  0
  -27.4940    1.1521   30.7841 C   0  0  0  0  0  0  0  0  0  0  0  0
  -26.3172    0.3994   27.3653 C   0  0  0  0  0  0  0  0  0  0  0  0
  -26.8797    0.7923   26.3846 N   0  0  0  0  0  0  0  0  0  0  0  0
  -25.0633    0.1092   27.3656 O   0  0  0  0  0  0  0  0  0  0  0  0
  -26.2751    0.7974   25.0437 C   0  0  0  0  0  0  0  0  0  0  0  0
  -28.0633    1.5628   26.1851 C   0  0  0  0  0  0  0  0  0  0  0  0
  -29.0297    1.0950   25.2891 C   0  0  0  0  0  0  0  0  0  0  0  0
  -30.2456    1.7120   25.3580 C   0  0  0  0  0  0  0  0  0  0  0  0
  -30.5242    2.7391   26.2794 C   0  0  0  0  0  0  0  0  0  0  0  0
  -29.5849    3.1447   27.2006 C   0  0  0  0  0  0  0  0  0  0  0  0
  -28.4124    2.5000   27.2489 C   0  0  0  0  0  0  0  0  0  0  0  0
  -29.6456   -2.1458   30.2795 Cl  0  0  0  0  0  0  0  0  0  0  0  0
  -28.7171    0.1381   24.3419 C   0  0  0  0  0  0  0  0  0  0  0  0
  -24.9884    0.3168   25.1251 C   0  0  0  0  0  0  0  0  0  0  0  0
  3  7  1  0
  7  8  1  0
  7  9  2  0
  8 10  1  0
  8 11  1  0
  2 17  1  0
 12 18  1  0
 10 19  1  0
 11 12  2  0
 12 13  1  0
 13 14  2  0
 14 15  1  0
 15 16  2  0
 16 11  1  0
  1  2  2  0
  2  5  1  0
  5  6  2  0
  6  4  1  0
  4  3  2  0
  3  1  1  0
M  END

$$$$
