No_4162-gen_results/8p0m/2024-11-27-11-27-31/
     RDKit          3D

 15 15  0  0  0  0  0  0  0  0999 V2000
  -28.0162   -0.8135   28.8779 C   0  0  0  0  0  0  0  0  0  0  0  0
  -27.0636   -0.1189   28.6079 C   0  0  0  0  0  0  0  0  0  0  0  0
  -25.7647   -0.3897   29.0360 C   0  0  0  0  0  0  0  0  0  0  0  0
  -25.5296   -1.5302   29.9014 C   0  0  0  0  0  0  0  0  0  0  0  0
  -26.6888   -2.2893   30.1810 C   0  0  0  0  0  0  0  0  0  0  0  0
  -27.8727   -1.9508   29.7373 C   0  0  0  0  0  0  0  0  0  0  0  0
  -24.6993    0.3604   28.7753 F   0  0  0  0  0  0  0  0  0  0  0  0
  -29.2297   -2.9278   30.1916 Cl  0  0  0  0  0  0  0  0  0  0  0  0
  -27.1570    1.1254   27.7289 C   0  0  0  0  0  0  0  0  0  0  0  0
  -26.8495    1.0423   26.4219 C   0  0  0  0  0  0  0  0  0  0  0  0
  -26.2272    0.0122   25.9228 C   0  0  0  0  0  0  0  0  0  0  0  0
  -25.9567   -0.1093   24.4868 C   0  0  0  0  0  0  0  0  0  0  0  0
  -24.8982   -0.0538   24.2105 C   0  0  0  0  0  0  0  0  0  0  0  0
  -23.8886    0.3906   25.3325 C   0  0  0  0  0  0  0  0  0  0  0  0
  -25.4589   -0.8673   26.4677 F   0  0  0  0  0  0  0  0  0  0  0  0
  3  7  1  0
  6  8  1  0
  2  9  1  0
  9 10  1  0
 10 11  1  0
 11 12  2  3
 12 13  1  0
 13 14  2  0
 11 15  1  0
  1  2  2  0
  2  3  1  0
  3  4  2  0
  4  5  1  0
  5  6  2  0
  6  1  1  0
M  END

$$$$
