No_4171-gen_results/8p0m/2024-11-27-11-27-31/
     RDKit          3D

 21 24  0  0  0  0  0  0  0  0999 V2000
  -28.0162   -0.8135   28.8779 C   0  0  0  0  0  0  0  0  0  0  0  0
  -27.0636   -0.1190   28.6079 C   0  0  0  0  0  0  0  0  0  0  0  0
  -25.7647   -0.3897   29.0360 C   0  0  0  0  0  0  0  0  0  0  0  0
  -24.5516    0.4058   28.7646 C   0  0  0  0  0  0  0  0  0  0  0  0
  -24.6957    1.4480   27.7988 C   0  0  0  0  0  0  0  0  0  0  0  0
  -26.0010    1.6784   27.2965 C   0  0  0  0  0  0  0  0  0  0  0  0
  -27.0736    0.9682   27.6500 C   0  0  0  0  0  0  0  0  0  0  0  0
  -29.2650   -0.1181   29.1802 C   0  0  0  0  0  0  0  0  0  0  0  0
  -29.6711    0.6752   28.1358 C   0  0  0  0  0  0  0  0  0  0  0  0
  -28.5327    1.4985   27.5416 C   0  0  0  0  0  0  0  0  0  0  0  0
  -23.4198    1.8430   27.3723 C   0  0  0  0  0  0  0  0  0  0  0  0
  -22.2622    1.5817   27.9579 N   0  0  0  0  0  0  0  0  0  0  0  0
  -22.2255    0.6307   28.9241 C   0  0  0  0  0  0  0  0  0  0  0  0
  -23.3681   -0.0435   29.2924 C   0  0  0  0  0  0  0  0  0  0  0  0
  -30.9804    1.2412   27.9454 C   0  0  0  0  0  0  0  0  0  0  0  0
  -31.4801    1.3485   26.8763 O   0  0  0  0  0  0  0  0  0  0  0  0
  -31.7247    1.4492   29.0078 O   0  0  0  0  0  0  0  0  0  0  0  0
  -26.0862    2.8723   26.3910 C   0  0  0  0  0  0  0  0  0  0  0  0
  -25.6131   -1.3990   29.8882 O   0  0  0  0  0  0  0  0  0  0  0  0
  -23.1692    2.9208   26.4323 N   0  0  0  0  0  0  0  0  0  0  0  0
  -24.3271    3.4464   25.8376 C   0  0  0  0  0  0  0  0  0  0  0  0
  2  3  1  0
  3  4  1  0
  9 15  1  0
 15 16  2  0
 15 17  1  0
  3 19  2  0
  7  6  1  0
  5  6  2  0
  6 18  1  0
 18 21  2  0
 21 20  1  0
 20 11  2  0
  1  2  2  0
  2  7  1  0
  7 10  2  0
 10  9  1  0
  9  8  2  0
  8  1  1  0
  4 14  2  0
 14 13  1  0
 13 12  2  0
 12 11  1  0
 11  5  1  0
  5  4  1  0
M  END

$$$$
