No_4990-gen_results/8p0m/2024-11-27-11-27-31/
     RDKit          3D

 22 24  0  0  0  0  0  0  0  0999 V2000
  -28.0162   -0.8135   28.8779 C   0  0  0  0  0  0  0  0  0  0  0  0
  -28.4690   -0.7850   29.8287 C   0  0  0  0  0  0  0  0  0  0  0  0
  -26.5042   -0.7777   28.8766 C   0  0  0  0  0  0  0  0  0  0  0  0
  -25.8103   -0.8531   30.1028 C   0  0  0  0  0  0  0  0  0  0  0  0
  -27.9906   -0.8916   31.2257 C   0  0  0  0  0  0  0  0  0  0  0  0
  -26.6042   -0.8676   31.2652 C   0  0  0  0  0  0  0  0  0  0  0  0
  -30.0739   -0.8360   29.8615 C   0  0  0  0  0  0  0  0  0  0  0  0
  -30.6891   -1.6554   30.2229 O   0  0  0  0  0  0  0  0  0  0  0  0
  -30.5868    0.0940   28.8678 N   0  0  0  0  0  0  0  0  0  0  0  0
  -31.9585    0.0495   28.5916 C   0  0  0  0  0  0  0  0  0  0  0  0
  -32.2307    0.3504   27.3307 C   0  0  0  0  0  0  0  0  0  0  0  0
  -31.2854    0.9860   26.4442 C   0  0  0  0  0  0  0  0  0  0  0  0
  -29.9416    1.0264   26.8381 C   0  0  0  0  0  0  0  0  0  0  0  0
  -29.6604    0.8500   28.0635 C   0  0  0  0  0  0  0  0  0  0  0  0
  -25.7632   -0.7476   27.7792 F   0  0  0  0  0  0  0  0  0  0  0  0
  -29.1776    1.9333   25.9700 C   0  0  0  0  0  0  0  0  0  0  0  0
  -27.7278    1.6557   26.0301 C   0  0  0  0  0  0  0  0  0  0  0  0
  -27.0842    0.9599   25.1119 C   0  0  0  0  0  0  0  0  0  0  0  0
  -25.6989    0.6395   25.2034 C   0  0  0  0  0  0  0  0  0  0  0  0
  -24.8472    1.2827   26.1231 C   0  0  0  0  0  0  0  0  0  0  0  0
  -26.7613    2.2386   27.0456 C   0  0  0  0  0  0  0  0  0  0  0  0
  -25.4449    2.1124   27.0171 C   0  0  0  0  0  0  0  0  0  0  0  0
  2  7  1  0
  7  8  2  0
  7  9  1  0
  9 10  1  0
 11 12  1  0
  9 14  1  0
 13 14  1  0
  3 15  1  0
 13 16  1  0
 16 17  1  0
 10 11  1  0
 12 13  1  0
 17 18  2  0
 18 19  1  0
 19 20  2  0
 20 22  1  0
 22 21  2  0
 21 17  1  0
  1  2  2  0
  2  5  1  0
  5  6  2  0
  6  4  1  0
  4  3  2  0
  3  1  1  0
M  END

$$$$
