No_4057-gen_results/8p0m/2024-11-27-11-27-31/
     RDKit          3D

 30 33  0  0  0  0  0  0  0  0999 V2000
  -28.0162   -0.8135   28.8779 C   0  0  0  0  0  0  0  0  0  0  0  0
  -27.0636   -0.1190   28.6079 C   0  0  0  0  0  0  0  0  0  0  0  0
  -25.7923   -0.4302   29.0761 C   0  0  0  0  0  0  0  0  0  0  0  0
  -24.5456    0.3494   28.8225 C   0  0  0  0  0  0  0  0  0  0  0  0
  -23.2409    0.0217   29.3323 C   0  0  0  0  0  0  0  0  0  0  0  0
  -27.8820   -1.8995   29.8633 C   0  0  0  0  0  0  0  0  0  0  0  0
  -26.6526   -2.3142   30.3138 C   0  0  0  0  0  0  0  0  0  0  0  0
  -25.5153   -1.5607   29.9787 C   0  0  0  0  0  0  0  0  0  0  0  0
  -23.2072   -1.2289   30.0311 C   0  0  0  0  0  0  0  0  0  0  0  0
  -24.2434   -1.9361   30.3879 C   0  0  0  0  0  0  0  0  0  0  0  0
  -24.5768    1.5651   27.9574 C   0  0  0  0  0  0  0  0  0  0  0  0
  -24.9283    1.4560   26.6921 C   0  0  0  0  0  0  0  0  0  0  0  0
  -25.3476    2.6365   28.6824 C   0  0  0  0  0  0  0  0  0  0  0  0
  -25.5569    3.8554   28.0050 C   0  0  0  0  0  0  0  0  0  0  0  0
  -26.2244    4.8867   28.6557 C   0  0  0  0  0  0  0  0  0  0  0  0
  -26.4961    4.8393   29.9900 C   0  0  0  0  0  0  0  0  0  0  0  0
  -26.1470    3.6929   30.7079 C   0  0  0  0  0  0  0  0  0  0  0  0
  -25.5300    2.6230   30.0970 C   0  0  0  0  0  0  0  0  0  0  0  0
  -23.0368    2.0856   27.9580 C   0  0  0  0  0  0  0  0  0  0  0  0
  -29.0094   -2.6323   30.1643 O   0  0  0  0  0  0  0  0  0  0  0  0
  -28.8754   -3.9136   30.5966 C   0  0  0  0  0  0  0  0  0  0  0  0
  -30.1259   -4.5895   30.8311 C   0  0  0  0  0  0  0  0  0  0  0  0
  -30.9900   -3.8949   31.4635 C   0  0  0  0  0  0  0  0  0  0  0  0
  -31.9850   -3.5946   31.3057 C   0  0  0  0  0  0  0  0  0  0  0  0
  -32.9565   -2.7515   32.1113 C   0  0  0  0  0  0  0  0  0  0  0  0
  -32.4308   -2.2547   33.2914 C   0  0  0  0  0  0  0  0  0  0  0  0
  -31.1393   -2.5558   33.6541 C   0  0  0  0  0  0  0  0  0  0  0  0
  -30.3506   -3.3282   32.8641 C   0  0  0  0  0  0  0  0  0  0  0  0
  -30.7311   -4.9909   29.5975 O   0  0  0  0  0  0  0  0  0  0  0  0
  -29.8478   -6.0141   31.5673 C   0  0  0  0  0  0  0  0  0  0  0  0
  4 11  1  0
 11 12  1  0
 11 13  1  0
 11 19  1  0
  6 20  1  0
 20 21  1  0
 21 22  1  0
 22 23  1  0
 22 29  1  0
 22 30  1  0
 13 14  2  0
 14 15  1  0
 15 16  2  0
 16 17  1  0
 17 18  2  0
 18 13  1  0
  1  2  2  0
  2  3  1  0
  8  7  1  0
  7  6  2  0
  6  1  1  0
 23 24  2  0
 24 25  1  0
 25 26  2  0
 26 27  1  0
 27 28  2  0
 28 23  1  0
  3  4  2  0
  4  5  1  0
  5  9  2  0
  9 10  1  0
 10  8  2  0
  8  3  1  0
M  END

$$$$
