No_4615-gen_results/8p0m/2024-11-27-11-27-31/
     RDKit          3D

 34 38  0  0  0  0  0  0  0  0999 V2000
  -28.0162   -0.8135   28.8779 C   0  0  0  0  0  0  0  0  0  0  0  0
  -27.0636   -0.1189   28.6079 C   0  0  0  0  0  0  0  0  0  0  0  0
  -25.7923   -0.4302   29.0761 C   0  0  0  0  0  0  0  0  0  0  0  0
  -25.5756   -1.5654   29.9363 C   0  0  0  0  0  0  0  0  0  0  0  0
  -26.7354   -2.3004   30.2173 C   0  0  0  0  0  0  0  0  0  0  0  0
  -27.9184   -1.9537   29.7629 C   0  0  0  0  0  0  0  0  0  0  0  0
  -27.1057    1.1023   27.7593 C   0  0  0  0  0  0  0  0  0  0  0  0
  -26.2345    1.4562   27.0152 N   0  0  0  0  0  0  0  0  0  0  0  0
  -28.4715    1.1204   27.0016 C   0  0  0  0  0  0  0  0  0  0  0  0
  -25.0591    2.0013   27.5917 C   0  0  0  0  0  0  0  0  0  0  0  0
  -24.8846    2.5372   28.7495 C   0  0  0  0  0  0  0  0  0  0  0  0
  -23.8145    1.9544   26.6809 C   0  0  0  0  0  0  0  0  0  0  0  0
  -22.5639    2.1757   27.2151 C   0  0  0  0  0  0  0  0  0  0  0  0
  -26.0043    2.8450   29.5931 C   0  0  0  0  0  0  0  0  0  0  0  0
  -26.6469    3.9403   29.5110 C   0  0  0  0  0  0  0  0  0  0  0  0
  -27.8513    4.1602   30.1984 C   0  0  0  0  0  0  0  0  0  0  0  0
  -22.4347    2.4030   28.6001 C   0  0  0  0  0  0  0  0  0  0  0  0
  -23.5723    2.6607   29.3879 C   0  0  0  0  0  0  0  0  0  0  0  0
  -25.5389    2.7672   31.1748 C   0  0  0  0  0  0  0  0  0  0  0  0
  -26.7416    2.8858   32.0605 C   0  0  0  0  0  0  0  0  0  0  0  0
  -27.4950    4.1397   31.7808 C   0  0  0  0  0  0  0  0  0  0  0  0
  -26.3596    1.4381   25.6250 C   0  0  0  0  0  0  0  0  0  0  0  0
  -29.2781    1.9280   26.9439 C   0  0  0  0  0  0  0  0  0  0  0  0
  -30.4368    1.8295   26.1474 C   0  0  0  0  0  0  0  0  0  0  0  0
  -30.6243    0.7237   25.3671 C   0  0  0  0  0  0  0  0  0  0  0  0
  -29.6723   -0.2605   25.3035 C   0  0  0  0  0  0  0  0  0  0  0  0
  -28.5187   -0.0807   26.1496 C   0  0  0  0  0  0  0  0  0  0  0  0
  -26.2664    2.8708   33.5337 C   0  0  0  0  0  0  0  0  0  0  0  0
  -27.6300    1.6564   31.8831 C   0  0  0  0  0  0  0  0  0  0  0  0
  -28.5308    1.4200   33.0315 C   0  0  0  0  0  0  0  0  0  0  0  0
  -27.8320    1.1896   34.2329 C   0  0  0  0  0  0  0  0  0  0  0  0
  -27.0428    2.4278   34.6361 C   0  0  0  0  0  0  0  0  0  0  0  0
  -29.8642    1.0534   32.7899 C   0  0  0  0  0  0  0  0  0  0  0  0
  -30.5868    1.1208   33.5628 O   0  0  0  0  0  0  0  0  0  0  0  0
  2  7  1  0
  7  8  1  0
  7  9  1  0
  8 10  1  0
 11 14  1  0
 14 15  1  0
 14 19  1  0
 19 20  1  0
 16 21  1  0
 20 21  1  0
  8 22  1  0
 20 28  1  0
 20 29  1  0
 29 30  1  0
 30 31  1  0
 28 32  1  0
 31 32  1  0
 30 33  1  0
 33 34  2  0
 15 16  1  0
  1  2  2  0
  2  3  1  0
  3  4  2  0
  4  5  1  0
  5  6  2  0
  6  1  1  0
  9 23  2  0
 23 24  1  0
 24 25  2  0
 25 26  1  0
 26 27  2  0
 27  9  1  0
 10 11  2  0
 11 18  1  0
 18 17  2  0
 17 13  1  0
 13 12  2  0
 12 10  1  0
M  END

$$$$
