No_4914-gen_results/8p0m/2024-11-27-11-27-31/
     RDKit          3D

 19 20  0  0  0  0  0  0  0  0999 V2000
  -28.0162   -0.8135   28.8779 C   0  0  0  0  0  0  0  0  0  0  0  0
  -27.0636   -0.1189   28.6079 C   0  0  0  0  0  0  0  0  0  0  0  0
  -27.0010    0.6913   27.4910 C   0  0  0  0  0  0  0  0  0  0  0  0
  -28.1373    0.7363   26.6350 C   0  0  0  0  0  0  0  0  0  0  0  0
  -28.1438    1.4323   25.4880 C   0  0  0  0  0  0  0  0  0  0  0  0
  -27.9644   -1.5920   30.1433 C   0  0  0  0  0  0  0  0  0  0  0  0
  -26.7347   -1.8442   30.6959 C   0  0  0  0  0  0  0  0  0  0  0  0
  -25.5743   -1.2494   30.2886 C   0  0  0  0  0  0  0  0  0  0  0  0
  -25.6965   -0.3422   29.2120 C   0  0  0  0  0  0  0  0  0  0  0  0
  -26.9912    2.0824   25.0262 C   0  0  0  0  0  0  0  0  0  0  0  0
  -25.7936    1.0876   26.8706 C   0  0  0  0  0  0  0  0  0  0  0  0
  -25.7856    1.9613   25.7155 C   0  0  0  0  0  0  0  0  0  0  0  0
  -29.3366   -2.4657   30.6866 Cl  0  0  0  0  0  0  0  0  0  0  0  0
  -29.3649    1.6951   24.7083 C   0  0  0  0  0  0  0  0  0  0  0  0
  -30.5085    1.9253   25.5023 C   0  0  0  0  0  0  0  0  0  0  0  0
  -31.7137    2.1042   24.8622 C   0  0  0  0  0  0  0  0  0  0  0  0
  -32.8969    2.4310   25.5234 C   0  0  0  0  0  0  0  0  0  0  0  0
  -32.8584    2.4563   26.9232 C   0  0  0  0  0  0  0  0  0  0  0  0
  -34.0248    2.6702   27.6771 C   0  0  0  0  0  0  0  0  0  0  0  0
  6 13  1  0
  5 14  1  0
 14 15  1  0
 15 16  2  3
 16 17  1  0
 17 18  2  3
 18 19  1  0
  2  3  1  0
  3  4  2  0
  4  5  1  0
  5 10  2  0
 10 12  1  0
 12 11  2  0
 11  3  1  0
  1  2  2  0
  2  9  1  0
  9  8  2  0
  8  7  1  0
  7  6  2  0
  6  1  1  0
M  END

$$$$
