No_4192-gen_results/8p0m/2024-11-27-11-27-31/
     RDKit          3D

 15 16  0  0  0  0  0  0  0  0999 V2000
  -28.0162   -0.8135   28.8779 C   0  0  0  0  0  0  0  0  0  0  0  0
  -28.4690   -0.7850   29.8287 C   0  0  0  0  0  0  0  0  0  0  0  0
  -26.5455   -0.8762   28.8500 C   0  0  0  0  0  0  0  0  0  0  0  0
  -25.8041   -1.0324   30.0571 C   0  0  0  0  0  0  0  0  0  0  0  0
  -27.9437   -0.9869   31.2075 C   0  0  0  0  0  0  0  0  0  0  0  0
  -26.5825   -1.0386   31.2231 C   0  0  0  0  0  0  0  0  0  0  0  0
  -30.2809   -0.7232   29.8834 Cl  0  0  0  0  0  0  0  0  0  0  0  0
  -24.5158   -1.0896   30.0531 F   0  0  0  0  0  0  0  0  0  0  0  0
  -25.7699   -0.8494   27.7133 O   0  0  0  0  0  0  0  0  0  0  0  0
  -25.8113    0.3044   27.0099 C   0  0  0  0  0  0  0  0  0  0  0  0
  -26.5026    0.2728   25.8373 C   0  0  0  0  0  0  0  0  0  0  0  0
  -25.0244    1.1986   27.4299 C   0  0  0  0  0  0  0  0  0  0  0  0
  -24.8426    2.3902   26.5952 C   0  0  0  0  0  0  0  0  0  0  0  0
  -26.6453    1.2291   25.2852 C   0  0  0  0  0  0  0  0  0  0  0  0
  -25.7475    2.4168   25.4747 C   0  0  0  0  0  0  0  0  0  0  0  0
  2  7  1  0
  4  8  1  0
  3  9  1  0
  9 10  1  0
 10 11  2  0
 11 14  1  0
 14 15  2  0
 15 13  1  0
 13 12  2  0
 12 10  1  0
  1  2  2  0
  2  5  1  0
  5  6  2  0
  6  4  1  0
  4  3  2  0
  3  1  1  0
M  END

$$$$
