No_4429-gen_results/8p0m/2024-11-27-11-27-31/
     RDKit          3D

 18 20  0  0  0  0  0  0  0  0999 V2000
  -28.0162   -0.8135   28.8779 C   0  0  0  0  0  0  0  0  0  0  0  0
  -27.0636   -0.1189   28.6079 C   0  0  0  0  0  0  0  0  0  0  0  0
  -26.9716    0.7139   27.5060 C   0  0  0  0  0  0  0  0  0  0  0  0
  -25.8205    1.4910   27.1160 C   0  0  0  0  0  0  0  0  0  0  0  0
  -24.6562    1.4242   27.9180 C   0  0  0  0  0  0  0  0  0  0  0  0
  -24.7114    0.5419   29.0507 C   0  0  0  0  0  0  0  0  0  0  0  0
  -25.8042   -0.2058   29.3881 C   0  0  0  0  0  0  0  0  0  0  0  0
  -28.0672   -1.5382   30.1911 C   0  0  0  0  0  0  0  0  0  0  0  0
  -29.2040   -2.2943   30.5528 C   0  0  0  0  0  0  0  0  0  0  0  0
  -29.9447   -1.8150   31.3747 C   0  0  0  0  0  0  0  0  0  0  0  0
  -29.4626   -1.1924   32.5843 C   0  0  0  0  0  0  0  0  0  0  0  0
  -28.2543   -0.4206   32.3512 C   0  0  0  0  0  0  0  0  0  0  0  0
  -27.4104   -0.9705   31.3491 C   0  0  0  0  0  0  0  0  0  0  0  0
  -26.0313   -0.5047   31.0964 C   0  0  0  0  0  0  0  0  0  0  0  0
  -27.9586    0.7688   26.6488 O   0  0  0  0  0  0  0  0  0  0  0  0
  -23.4443    0.4279   29.8819 C   0  0  0  0  0  0  0  0  0  0  0  0
  -23.3173    0.5977   30.9947 C   0  0  0  0  0  0  0  0  0  0  0  0
  -22.3372   -0.1210   29.0343 C   0  0  0  0  0  0  0  0  0  0  0  0
  2  3  1  0
  3  4  1  0
  5  6  1  0
  6  7  1  0
  3 15  2  0
  6 16  1  0
 16 17  1  0
 16 18  1  0
  5  4  1  0
  8  9  2  0
  9 10  1  0
 10 11  2  0
 11 12  1  0
 12 13  2  0
  1  2  2  0
  2  7  1  0
  7 14  2  0
 14 13  1  0
 13  8  1  0
  8  1  1  0
M  END

$$$$
