No_4-gen_results/8p0m/2024-11-27-11-27-31/
     RDKit          3D

 25 29  0  0  0  0  0  0  0  0999 V2000
  -28.0162   -0.8135   28.8779 C   0  0  0  0  0  0  0  0  0  0  0  0
  -27.0636   -0.1190   28.6079 C   0  0  0  0  0  0  0  0  0  0  0  0
  -27.0010    0.6913   27.4910 C   0  0  0  0  0  0  0  0  0  0  0  0
  -25.7770    1.0214   26.9135 C   0  0  0  0  0  0  0  0  0  0  0  0
  -24.6982    0.6762   27.4835 C   0  0  0  0  0  0  0  0  0  0  0  0
  -24.6104   -0.1076   28.6413 C   0  0  0  0  0  0  0  0  0  0  0  0
  -25.8358   -0.5515   29.0863 C   0  0  0  0  0  0  0  0  0  0  0  0
  -29.2002   -0.1318   29.0918 N   0  0  0  0  0  0  0  0  0  0  0  0
  -30.3167   -0.7309   29.5982 C   0  0  0  0  0  0  0  0  0  0  0  0
  -23.3219    1.2478   26.9832 C   0  0  0  0  0  0  0  0  0  0  0  0
  -23.2231    2.2251   26.0164 C   0  0  0  0  0  0  0  0  0  0  0  0
  -22.1448    1.0982   27.8071 C   0  0  0  0  0  0  0  0  0  0  0  0
  -22.0404    0.3145   28.9260 C   0  0  0  0  0  0  0  0  0  0  0  0
  -23.3578   -0.3112   29.3867 C   0  0  0  0  0  0  0  0  0  0  0  0
  -31.5574   -0.4395   28.9631 C   0  0  0  0  0  0  0  0  0  0  0  0
  -32.6002   -0.9282   29.0309 C   0  0  0  0  0  0  0  0  0  0  0  0
  -31.3937    0.6852   27.9174 C   0  0  0  0  0  0  0  0  0  0  0  0
  -30.1948    1.2731   27.6083 C   0  0  0  0  0  0  0  0  0  0  0  0
  -29.1334    0.6143   27.8659 C   0  0  0  0  0  0  0  0  0  0  0  0
  -28.3791    0.6275   26.9045 N   0  0  0  0  0  0  0  0  0  0  0  0
  -30.2579   -1.5714   30.4887 O   0  0  0  0  0  0  0  0  0  0  0  0
  -33.7270   -0.6912   28.5099 C   0  0  0  0  0  0  0  0  0  0  0  0
  -33.6965    0.3900   27.5250 C   0  0  0  0  0  0  0  0  0  0  0  0
  -32.5965    1.0730   27.2747 C   0  0  0  0  0  0  0  0  0  0  0  0
  -25.7284   -1.2914   30.2279 O   0  0  0  0  0  0  0  0  0  0  0  0
  1  2  1  0
  2  3  1  0
  4  5  1  0
  2  7  1  0
  6  7  1  0
  1  8  1  0
  8  9  1  0
  9 15  1  0
  8 19  1  0
 18 19  1  0
  3 20  1  0
  9 21  2  0
  7 25  2  0
 11 10  1  0
 20 19  1  0
 17 18  1  0
  3  4  1  0
  5 10  2  0
 10 12  1  0
 12 13  2  0
 13 14  1  0
 14  6  2  0
  6  5  1  0
 15 16  2  0
 16 22  1  0
 22 23  2  0
 23 24  1  0
 24 17  2  0
 17 15  1  0
M  END

$$$$
