No_4790-gen_results/8p0m/2024-11-27-11-27-31/
     RDKit          3D

 16 17  0  0  0  0  0  0  0  0999 V2000
  -28.0162   -0.8135   28.8779 C   0  0  0  0  0  0  0  0  0  0  0  0
  -27.0636   -0.1189   28.6079 C   0  0  0  0  0  0  0  0  0  0  0  0
  -26.9716    0.7139   27.5060 C   0  0  0  0  0  0  0  0  0  0  0  0
  -28.1053    0.7744   26.6421 C   0  0  0  0  0  0  0  0  0  0  0  0
  -29.2041    0.1179   27.0477 C   0  0  0  0  0  0  0  0  0  0  0  0
  -29.2127   -0.6088   28.1281 C   0  0  0  0  0  0  0  0  0  0  0  0
  -25.7106    1.4519   27.1380 C   0  0  0  0  0  0  0  0  0  0  0  0
  -25.2074    2.4128   27.9320 C   0  0  0  0  0  0  0  0  0  0  0  0
  -23.9435    3.0257   27.6071 C   0  0  0  0  0  0  0  0  0  0  0  0
  -23.2732    2.5298   26.4563 C   0  0  0  0  0  0  0  0  0  0  0  0
  -24.8702    0.9778   26.0692 C   0  0  0  0  0  0  0  0  0  0  0  0
  -23.7309    1.5522   25.6992 C   0  0  0  0  0  0  0  0  0  0  0  0
  -25.9243    2.9849   29.0740 C   0  0  0  0  0  0  0  0  0  0  0  0
  -26.2583    4.1010   29.0733 O   0  0  0  0  0  0  0  0  0  0  0  0
  -26.0349    2.1761   30.0882 O   0  0  0  0  0  0  0  0  0  0  0  0
  -28.0685    1.8305   25.2915 Cl  0  0  0  0  0  0  0  0  0  0  0  0
  3  7  1  0
  8 13  1  0
 13 14  2  0
 13 15  1  0
  4 16  1  0
  7  8  2  0
  8  9  1  0
  9 10  2  0
 10 12  1  0
 12 11  2  0
 11  7  1  0
  1  2  2  0
  2  3  1  0
  3  4  2  0
  4  5  1  0
  5  6  2  0
  6  1  1  0
M  END

$$$$
