No_4107-gen_results/8p0m/2024-11-27-11-27-31/
     RDKit          3D

 10 11  0  0  0  0  0  0  0  0999 V2000
  -28.0162   -0.8135   28.8779 C   0  0  0  0  0  0  0  0  0  0  0  0
  -28.4690   -0.7850   29.8287 C   0  0  0  0  0  0  0  0  0  0  0  0
  -26.5042   -0.7777   28.8766 C   0  0  0  0  0  0  0  0  0  0  0  0
  -25.7622   -0.0022   27.9705 C   0  0  0  0  0  0  0  0  0  0  0  0
  -27.9832   -1.4903   31.0818 C   0  0  0  0  0  0  0  0  0  0  0  0
  -26.6062   -1.5983   31.1298 C   0  0  0  0  0  0  0  0  0  0  0  0
  -25.8085   -1.2512   30.0553 C   0  0  0  0  0  0  0  0  0  0  0  0
  -24.4309    0.3110   28.0988 C   0  0  0  0  0  0  0  0  0  0  0  0
  -23.6764   -0.4253   29.1027 C   0  0  0  0  0  0  0  0  0  0  0  0
  -24.3613   -1.0239   30.1131 C   0  0  0  0  0  0  0  0  0  0  0  0
  1  2  1  0
  1  3  1  0
  2  5  1  0
  5  6  1  0
  6  7  1  0
  3  4  2  0
  4  8  1  0
  8  9  2  0
  9 10  1  0
 10  7  2  0
  7  3  1  0
M  END

$$$$
