No_4835-gen_results/8p0m/2024-11-27-11-27-31/
     RDKit          3D

  8  7  0  0  0  0  0  0  0  0999 V2000
  -28.0727   -1.2542   28.5316 F   0  0  0  0  0  0  0  0  0  0  0  0
  -27.3591   -0.3792   28.7224 C   0  0  0  0  0  0  0  0  0  0  0  0
  -26.8100    0.1885   27.6513 C   0  0  0  0  0  0  0  0  0  0  0  0
  -27.4896    0.3508   26.4426 C   0  0  0  0  0  0  0  0  0  0  0  0
  -26.8425    0.5635   25.2793 C   0  0  0  0  0  0  0  0  0  0  0  0
  -27.3862    0.5539   24.0461 C   0  0  0  0  0  0  0  0  0  0  0  0
  -25.3631    0.5614   25.4069 C   0  0  0  0  0  0  0  0  0  0  0  0
  -24.6321    0.4483   26.5060 C   0  0  0  0  0  0  0  0  0  0  0  0
  1  2  1  0
  2  3  2  3
  3  4  1  0
  4  5  2  3
  5  6  1  0
  5  7  1  0
  7  8  2  0
M  END

$$$$
