No_4624-gen_results/8p0m/2024-11-27-11-27-31/
     RDKit          3D

 28 31  0  0  0  0  0  0  0  0999 V2000
  -28.0162   -0.8135   28.8779 C   0  0  0  0  0  0  0  0  0  0  0  0
  -28.4690   -0.7850   29.8287 C   0  0  0  0  0  0  0  0  0  0  0  0
  -26.5455   -0.8762   28.8500 C   0  0  0  0  0  0  0  0  0  0  0  0
  -25.6825   -0.7773   27.6829 C   0  0  0  0  0  0  0  0  0  0  0  0
  -27.9181   -1.0034   31.1877 C   0  0  0  0  0  0  0  0  0  0  0  0
  -26.5308   -1.0794   31.2463 C   0  0  0  0  0  0  0  0  0  0  0  0
  -25.7798   -1.0462   30.0905 C   0  0  0  0  0  0  0  0  0  0  0  0
  -25.8976    0.2387   26.7449 C   0  0  0  0  0  0  0  0  0  0  0  0
  -25.0024    0.4172   25.6959 C   0  0  0  0  0  0  0  0  0  0  0  0
  -27.2685    0.4611   26.3704 C   0  0  0  0  0  0  0  0  0  0  0  0
  -27.5644    1.1829   25.2129 C   0  0  0  0  0  0  0  0  0  0  0  0
  -28.8249    1.7112   25.1107 C   0  0  0  0  0  0  0  0  0  0  0  0
  -29.4677    2.0973   26.2202 C   0  0  0  0  0  0  0  0  0  0  0  0
  -30.8182    2.4681   26.0789 C   0  0  0  0  0  0  0  0  0  0  0  0
  -31.3789    2.5921   24.8095 C   0  0  0  0  0  0  0  0  0  0  0  0
  -30.7108    2.2830   23.6595 C   0  0  0  0  0  0  0  0  0  0  0  0
  -29.4216    1.8505   23.7982 C   0  0  0  0  0  0  0  0  0  0  0  0
  -26.2594    1.6748   24.7016 C   0  0  0  0  0  0  0  0  0  0  0  0
  -25.2395    1.3193   24.8902 C   0  0  0  0  0  0  0  0  0  0  0  0
  -30.0680   -0.6409   29.9132 C   0  0  0  0  0  0  0  0  0  0  0  0
  -30.5003    0.2906   29.5903 O   0  0  0  0  0  0  0  0  0  0  0  0
  -30.6803   -1.4712   30.6694 O   0  0  0  0  0  0  0  0  0  0  0  0
  -32.7947    3.1258   24.6485 C   0  0  0  0  0  0  0  0  0  0  0  0
  -33.2928    3.8713   25.4575 N   0  0  0  0  0  0  0  0  0  0  0  0
  -33.8609    4.8294   25.6234 C   0  0  0  0  0  0  0  0  0  0  0  0
  -34.3729    5.4872   24.4417 C   0  0  0  0  0  0  0  0  0  0  0  0
  -34.1014    4.7447   23.2579 C   0  0  0  0  0  0  0  0  0  0  0  0
  -33.0324    3.6787   23.2774 C   0  0  0  0  0  0  0  0  0  0  0  0
  3  4  1  0
 11 12  1  0
  2 20  1  0
 20 21  1  0
 20 22  2  0
 15 23  1  0
  4  8  1  0
 12 13  2  0
 13 14  1  0
 14 15  2  0
 15 16  1  0
 16 17  2  0
 17 12  1  0
 23 24  2  0
 24 25  1  0
 25 26  2  0
 26 27  1  0
 27 28  2  0
 28 23  1  0
  8  9  2  0
  9 19  1  0
 19 18  2  0
 18 11  1  0
 11 10  2  0
 10  8  1  0
  1  2  2  0
  2  5  1  0
  5  6  2  0
  6  7  1  0
  7  3  2  0
  3  1  1  0
M  END

$$$$
