No_4676-gen_results/8p0m/2024-11-27-11-27-31/
     RDKit          3D

 13 14  0  0  0  0  0  0  0  0999 V2000
  -28.0162   -0.8135   28.8779 C   0  0  0  0  0  0  0  0  0  0  0  0
  -28.4690   -0.7850   29.8287 C   0  0  0  0  0  0  0  0  0  0  0  0
  -28.1960    0.3478   28.0550 C   0  0  0  0  0  0  0  0  0  0  0  0
  -27.4421    0.5100   26.7946 C   0  0  0  0  0  0  0  0  0  0  0  0
  -26.1689   -0.0794   26.6787 C   0  0  0  0  0  0  0  0  0  0  0  0
  -25.3298    0.2528   25.6068 C   0  0  0  0  0  0  0  0  0  0  0  0
  -29.5537    0.0540   30.3031 C   0  0  0  0  0  0  0  0  0  0  0  0
  -29.8504    1.1038   29.5185 C   0  0  0  0  0  0  0  0  0  0  0  0
  -29.1554    1.2882   28.3507 C   0  0  0  0  0  0  0  0  0  0  0  0
  -27.9464    1.0488   25.6228 C   0  0  0  0  0  0  0  0  0  0  0  0
  -27.2241    1.1744   24.4333 C   0  0  0  0  0  0  0  0  0  0  0  0
  -25.8979    0.7494   24.4827 C   0  0  0  0  0  0  0  0  0  0  0  0
  -29.3638    2.2351   27.5143 O   0  0  0  0  0  0  0  0  0  0  0  0
  3  4  1  0
  9 13  1  0
  4  5  2  0
  5  6  1  0
  6 12  2  0
 12 11  1  0
 11 10  2  0
 10  4  1  0
  1  2  2  0
  2  7  1  0
  7  8  2  0
  8  9  1  0
  9  3  2  0
  3  1  1  0
M  END

$$$$
