No_4606-gen_results/8p0m/2024-11-27-11-27-31/
     RDKit          3D

 18 19  0  0  0  0  0  0  0  0999 V2000
  -28.0162   -0.8135   28.8779 C   0  0  0  0  0  0  0  0  0  0  0  0
  -28.4690   -0.7850   29.8287 C   0  0  0  0  0  0  0  0  0  0  0  0
  -26.5042   -0.7777   28.8766 C   0  0  0  0  0  0  0  0  0  0  0  0
  -25.9500    0.1157   29.4052 C   0  0  0  0  0  0  0  0  0  0  0  0
  -29.9713   -0.8318   29.8595 C   0  0  0  0  0  0  0  0  0  0  0  0
  -26.5443    0.4866   30.7701 C   0  0  0  0  0  0  0  0  0  0  0  0
  -27.9173    0.0753   31.0021 C   0  0  0  0  0  0  0  0  0  0  0  0
  -30.7182   -0.0454   30.4793 N   0  0  0  0  0  0  0  0  0  0  0  0
  -31.6137    0.6329   30.2122 C   0  0  0  0  0  0  0  0  0  0  0  0
  -32.1791    0.3427   29.1538 F   0  0  0  0  0  0  0  0  0  0  0  0
  -32.6097    0.9404   31.0537 O   0  0  0  0  0  0  0  0  0  0  0  0
  -30.4768   -1.9013   29.4460 O   0  0  0  0  0  0  0  0  0  0  0  0
  -24.5056    0.3783   29.3893 C   0  0  0  0  0  0  0  0  0  0  0  0
  -24.1191    1.3418   28.3530 C   0  0  0  0  0  0  0  0  0  0  0  0
  -24.7615    2.3799   28.0856 C   0  0  0  0  0  0  0  0  0  0  0  0
  -24.3729    3.0845   26.9297 N   0  0  0  0  0  0  0  0  0  0  0  0
  -23.2942    2.4571   26.3563 C   0  0  0  0  0  0  0  0  0  0  0  0
  -23.0813    1.3595   27.1988 C   0  0  0  0  0  0  0  0  0  0  0  0
  2  5  1  0
  5  8  1  0
  8  9  1  0
  9 10  1  0
  9 11  2  0
  5 12  2  0
  4 13  1  0
 13 14  1  0
 14 15  1  0
 15 16  2  0
 16 17  1  0
 14 18  1  0
 17 18  1  0
  1  2  2  0
  2  7  1  0
  7  6  2  0
  6  4  1  0
  4  3  2  0
  3  1  1  0
M  END

$$$$
