No_4942-gen_results/8p0m/2024-11-27-11-27-31/
     RDKit          3D

 23 24  0  0  0  0  0  0  0  0999 V2000
  -28.0162   -0.8135   28.8779 C   0  0  0  0  0  0  0  0  0  0  0  0
  -27.0636   -0.1189   28.6079 C   0  0  0  0  0  0  0  0  0  0  0  0
  -26.9716    0.7139   27.5060 C   0  0  0  0  0  0  0  0  0  0  0  0
  -25.8205    1.4909   27.1160 C   0  0  0  0  0  0  0  0  0  0  0  0
  -24.6562    1.4242   27.9180 C   0  0  0  0  0  0  0  0  0  0  0  0
  -24.6847    0.5901   29.0659 C   0  0  0  0  0  0  0  0  0  0  0  0
  -25.8099   -0.1265   29.3338 C   0  0  0  0  0  0  0  0  0  0  0  0
  -28.6943   -0.4734   30.1587 C   0  0  0  0  0  0  0  0  0  0  0  0
  -29.7069   -1.2924   30.6301 N   0  0  0  0  0  0  0  0  0  0  0  0
  -23.4632    2.1896   27.5970 C   0  0  0  0  0  0  0  0  0  0  0  0
  -23.4656    2.8698   26.7064 F   0  0  0  0  0  0  0  0  0  0  0  0
  -22.9299    2.8225   28.6756 F   0  0  0  0  0  0  0  0  0  0  0  0
  -22.3799    1.2298   27.4858 F   0  0  0  0  0  0  0  0  0  0  0  0
  -29.7967   -1.7634   31.7204 C   0  0  0  0  0  0  0  0  0  0  0  0
  -28.1247    0.8316   26.6037 C   0  0  0  0  0  0  0  0  0  0  0  0
  -29.1672    0.9438   26.8973 O   0  0  0  0  0  0  0  0  0  0  0  0
  -27.8285    0.3498   25.2481 N   0  0  0  0  0  0  0  0  0  0  0  0
  -26.6116    0.1080   24.7819 C   0  0  0  0  0  0  0  0  0  0  0  0
  -28.8979    0.2763   24.3398 C   0  0  0  0  0  0  0  0  0  0  0  0
  -30.8659   -1.4920   29.8010 C   0  0  0  0  0  0  0  0  0  0  0  0
  -31.6146   -2.6115   29.9933 C   0  0  0  0  0  0  0  0  0  0  0  0
  -30.5367   -2.9253   32.1213 C   0  0  0  0  0  0  0  0  0  0  0  0
  -31.6283   -3.2082   31.2860 C   0  0  0  0  0  0  0  0  0  0  0  0
  1  8  1  0
  8  9  1  0
  5 10  1  0
 10 11  1  0
 10 12  1  0
 10 13  1  0
  9 14  1  0
  3 15  1  0
 15 16  2  0
 15 17  1  0
 17 18  1  0
 17 19  1  0
  9 20  1  0
 21 23  1  0
 22 23  1  0
  1  2  1  0
 14 22  1  0
 21 20  1  0
  2  3  2  0
  3  4  1  0
  4  5  2  0
  5  6  1  0
  6  7  2  0
  7  2  1  0
M  END

$$$$
