No_417-gen_results/8p0m/2024-11-27-11-27-31/
     RDKit          3D

 17 18  0  0  0  0  0  0  0  0999 V2000
  -28.0162   -0.8135   28.8779 C   0  0  0  0  0  0  0  0  0  0  0  0
  -27.0636   -0.1190   28.6079 C   0  0  0  0  0  0  0  0  0  0  0  0
  -26.9716    0.7139   27.5060 C   0  0  0  0  0  0  0  0  0  0  0  0
  -25.8205    1.4909   27.1160 C   0  0  0  0  0  0  0  0  0  0  0  0
  -24.6562    1.4242   27.9180 C   0  0  0  0  0  0  0  0  0  0  0  0
  -24.6847    0.5901   29.0659 C   0  0  0  0  0  0  0  0  0  0  0  0
  -25.8099   -0.1266   29.3338 C   0  0  0  0  0  0  0  0  0  0  0  0
  -28.0445   -1.5734   30.1690 C   0  0  0  0  0  0  0  0  0  0  0  0
  -26.8627   -1.7197   30.8519 N   0  0  0  0  0  0  0  0  0  0  0  0
  -25.7547   -0.9912   30.5102 C   0  0  0  0  0  0  0  0  0  0  0  0
  -23.4571    2.2235   27.5829 C   0  0  0  0  0  0  0  0  0  0  0  0
  -22.6461    2.4102   28.5118 O   0  0  0  0  0  0  0  0  0  0  0  0
  -23.2330    2.6021   26.3969 O   0  0  0  0  0  0  0  0  0  0  0  0
  -28.0995    0.8099   26.5412 C   0  0  0  0  0  0  0  0  0  0  0  0
  -29.4908    1.3991   26.8821 Cl  0  0  0  0  0  0  0  0  0  0  0  0
  -27.9492    0.1881   25.4442 F   0  0  0  0  0  0  0  0  0  0  0  0
  -24.4134   -1.0949   31.4816 Cl  0  0  0  0  0  0  0  0  0  0  0  0
  5 11  1  0
 11 12  2  0
 11 13  1  0
  3 14  1  0
 14 15  1  0
 14 16  1  0
 10 17  1  0
  2  3  1  0
  3  4  2  0
  4  5  1  0
  5  6  2  0
  6  7  1  0
  1  2  2  0
  2  7  1  0
  7 10  2  0
 10  9  1  0
  9  8  2  0
  8  1  1  0
M  END

$$$$
