No_4553-gen_results/8p0m/2024-11-27-11-27-31/
     RDKit          3D

 17 18  0  0  0  0  0  0  0  0999 V2000
  -28.0162   -0.8135   28.8779 C   0  0  0  0  0  0  0  0  0  0  0  0
  -27.0636   -0.1189   28.6079 C   0  0  0  0  0  0  0  0  0  0  0  0
  -25.7923   -0.4302   29.0761 C   0  0  0  0  0  0  0  0  0  0  0  0
  -25.5756   -1.5654   29.9363 C   0  0  0  0  0  0  0  0  0  0  0  0
  -26.7354   -2.3004   30.2173 C   0  0  0  0  0  0  0  0  0  0  0  0
  -26.5841   -3.5078   30.9846 C   0  0  0  0  0  0  0  0  0  0  0  0
  -27.9637   -1.9827   29.6995 C   0  0  0  0  0  0  0  0  0  0  0  0
  -26.7225   -4.5963   29.9096 C   0  0  0  0  0  0  0  0  0  0  0  0
  -27.1228    1.1766   27.7964 C   0  0  0  0  0  0  0  0  0  0  0  0
  -26.2463    1.4482   26.9231 C   0  0  0  0  0  0  0  0  0  0  0  0
  -24.8904    0.8483   27.0595 C   0  0  0  0  0  0  0  0  0  0  0  0
  -24.6587   -0.0715   28.0818 C   0  0  0  0  0  0  0  0  0  0  0  0
  -23.8457    1.3479   26.4579 F   0  0  0  0  0  0  0  0  0  0  0  0
  -28.3577    1.7130   27.6533 O   0  0  0  0  0  0  0  0  0  0  0  0
  -28.9632    2.2646   28.6577 C   0  0  0  0  0  0  0  0  0  0  0  0
  -30.3029    2.0459   28.7970 C   0  0  0  0  0  0  0  0  0  0  0  0
  -31.0052    2.6016   29.9150 C   0  0  0  0  0  0  0  0  0  0  0  0
  5  6  1  0
  6  8  1  0
 11 13  1  0
  9 14  1  0
 14 15  1  0
 15 16  2  3
 16 17  1  0
  1  2  2  0
  3  4  2  0
  4  5  1  0
  5  7  2  0
  7  1  1  0
  2  3  1  0
  3 12  1  0
 12 11  2  0
 11 10  1  0
 10  9  2  0
  9  2  1  0
M  END

$$$$
