No_4780-gen_results/8p0m/2024-11-27-11-27-31/
     RDKit          3D

 20 22  0  0  0  0  0  0  0  0999 V2000
  -28.0162   -0.8135   28.8779 C   0  0  0  0  0  0  0  0  0  0  0  0
  -27.0636   -0.1190   28.6079 C   0  0  0  0  0  0  0  0  0  0  0  0
  -25.7647   -0.3897   29.0360 C   0  0  0  0  0  0  0  0  0  0  0  0
  -24.5516    0.4058   28.7646 C   0  0  0  0  0  0  0  0  0  0  0  0
  -24.6957    1.4480   27.7988 C   0  0  0  0  0  0  0  0  0  0  0  0
  -25.9755    1.7250   27.3077 C   0  0  0  0  0  0  0  0  0  0  0  0
  -27.0718    1.0134   27.6535 C   0  0  0  0  0  0  0  0  0  0  0  0
  -29.2970   -0.0000   29.7523 P   0  0  0  0  0  0  0  0  0  0  0  0
  -30.3863   -0.9404   29.9295 O   0  0  0  0  0  0  0  0  0  0  0  0
  -28.7502    0.3757   31.1036 O   0  0  0  0  0  0  0  0  0  0  0  0
  -29.6969    1.1716   28.9878 O   0  0  0  0  0  0  0  0  0  0  0  0
  -23.5230    2.2743   27.5450 C   0  0  0  0  0  0  0  0  0  0  0  0
  -22.2325    1.7528   27.8633 C   0  0  0  0  0  0  0  0  0  0  0  0
  -22.1742    0.7112   28.8014 C   0  0  0  0  0  0  0  0  0  0  0  0
  -23.3279   -0.0616   29.2200 C   0  0  0  0  0  0  0  0  0  0  0  0
  -30.3067   -2.0081   30.5299 F   0  0  0  0  0  0  0  0  0  0  0  0
  -25.5847   -1.3789   29.9226 O   0  0  0  0  0  0  0  0  0  0  0  0
  -26.0738    2.9171   26.4247 C   0  0  0  0  0  0  0  0  0  0  0  0
  -25.5022    4.0056   26.9055 C   0  0  0  0  0  0  0  0  0  0  0  0
  -23.9422    3.7477   27.1352 C   0  0  0  0  0  0  0  0  0  0  0  0
  2  3  1  0
  3  4  1  0
  5  6  1  0
  2  7  1  0
  1  8  1  0
  8  9  1  0
  8 10  1  0
  8 11  2  0
  9 16  1  0
  3 17  2  0
  6 18  1  0
 18 19  1  0
 12 20  1  0
 19 20  1  0
  1  2  1  0
  7  6  1  0
  4  5  2  0
  5 12  1  0
 12 13  2  0
 13 14  1  0
 14 15  2  0
 15  4  1  0
M  END

$$$$
