No_4488-gen_results/8p0m/2024-11-27-11-27-31/
     RDKit          3D

 35 38  0  0  0  0  0  0  0  0999 V2000
  -28.0162   -0.8135   28.8779 C   0  0  0  0  0  0  0  0  0  0  0  0
  -28.4690   -0.7850   29.8287 C   0  0  0  0  0  0  0  0  0  0  0  0
  -27.0871    0.2903   28.6377 C   0  0  0  0  0  0  0  0  0  0  0  0
  -26.8317    1.2487   29.5869 C   0  0  0  0  0  0  0  0  0  0  0  0
  -28.3914    0.0801   31.0065 C   0  0  0  0  0  0  0  0  0  0  0  0
  -27.4940    1.1521   30.7841 C   0  0  0  0  0  0  0  0  0  0  0  0
  -26.3109    0.3918   27.3640 C   0  0  0  0  0  0  0  0  0  0  0  0
  -25.5530   -0.4068   27.2285 F   0  0  0  0  0  0  0  0  0  0  0  0
  -25.6173    1.6102   27.2977 F   0  0  0  0  0  0  0  0  0  0  0  0
  -27.1940    0.4864   26.2871 F   0  0  0  0  0  0  0  0  0  0  0  0
  -29.4507   -2.0327   30.2361 C   0  0  0  0  0  0  0  0  0  0  0  0
  -29.8707   -2.0634   31.4332 O   0  0  0  0  0  0  0  0  0  0  0  0
  -29.5758   -2.9697   29.4978 O   0  0  0  0  0  0  0  0  0  0  0  0
  -27.2611    2.1743   31.8375 C   0  0  0  0  0  0  0  0  0  0  0  0
  -26.9030    1.9651   32.8813 C   0  0  0  0  0  0  0  0  0  0  0  0
  -26.5971    2.9401   33.9145 C   0  0  0  0  0  0  0  0  0  0  0  0
  -27.4147    3.5771   31.3967 C   0  0  0  0  0  0  0  0  0  0  0  0
  -27.1737    4.6166   32.2683 C   0  0  0  0  0  0  0  0  0  0  0  0
  -26.7229    4.3048   33.5760 C   0  0  0  0  0  0  0  0  0  0  0  0
  -26.4113    5.3528   34.5605 C   0  0  0  0  0  0  0  0  0  0  0  0
  -27.1314    6.5098   34.5397 C   0  0  0  0  0  0  0  0  0  0  0  0
  -26.7469    7.4086   35.3104 C   0  0  0  0  0  0  0  0  0  0  0  0
  -25.3426    5.2651   35.4183 C   0  0  0  0  0  0  0  0  0  0  0  0
  -24.9079    6.1991   36.2452 C   0  0  0  0  0  0  0  0  0  0  0  0
  -25.6600    7.3873   36.2668 C   0  0  0  0  0  0  0  0  0  0  0  0
  -25.2804    8.4584   37.1952 C   0  0  0  0  0  0  0  0  0  0  0  0
  -26.2242    9.2179   37.6423 C   0  0  0  0  0  0  0  0  0  0  0  0
  -23.9001    8.5728   37.5168 C   0  0  0  0  0  0  0  0  0  0  0  0
  -25.9435   10.1962   38.5269 C   0  0  0  0  0  0  0  0  0  0  0  0
  -23.5968    9.6152   38.4544 C   0  0  0  0  0  0  0  0  0  0  0  0
  -24.6213   10.4259   38.9448 C   0  0  0  0  0  0  0  0  0  0  0  0
  -24.2633   11.4964   39.8968 C   0  0  0  0  0  0  0  0  0  0  0  0
  -25.1456   11.8892   40.5722 F   0  0  0  0  0  0  0  0  0  0  0  0
  -23.3062   11.0006   40.7132 F   0  0  0  0  0  0  0  0  0  0  0  0
  -23.6884   12.4563   39.1172 F   0  0  0  0  0  0  0  0  0  0  0  0
  3  7  1  0
  7  8  1  0
  7  9  1  0
  7 10  1  0
  2 11  1  0
 11 12  2  0
 11 13  1  0
  6 14  1  0
 19 20  1  0
 25 26  1  0
 31 32  1  0
 32 33  1  0
 32 34  1  0
 32 35  1  0
 26 27  2  0
 27 29  1  0
 29 31  2  0
 31 30  1  0
 30 28  2  0
 28 26  1  0
 20 21  2  0
 21 22  1  0
 22 25  2  0
 25 24  1  0
 24 23  2  0
 23 20  1  0
  1  2  2  0
  2  5  1  0
  5  6  2  0
  6  4  1  0
  4  3  2  0
  3  1  1  0
 14 15  2  0
 15 16  1  0
 16 19  2  0
 19 18  1  0
 18 17  2  0
 17 14  1  0
M  END

$$$$
