No_4768-gen_results/8p0m/2024-11-27-11-27-31/
     RDKit          3D

 12 13  0  0  0  0  0  0  0  0999 V2000
  -28.0162   -0.8135   28.8779 C   0  0  0  0  0  0  0  0  0  0  0  0
  -28.4690   -0.7850   29.8287 C   0  0  0  0  0  0  0  0  0  0  0  0
  -26.5042   -0.7777   28.8766 C   0  0  0  0  0  0  0  0  0  0  0  0
  -25.7622   -0.0022   27.9705 C   0  0  0  0  0  0  0  0  0  0  0  0
  -24.3914    0.1198   28.1381 C   0  0  0  0  0  0  0  0  0  0  0  0
  -23.5447    1.0260   27.3824 C   0  0  0  0  0  0  0  0  0  0  0  0
  -24.1499    1.6445   26.2196 C   0  0  0  0  0  0  0  0  0  0  0  0
  -25.5353    1.4131   26.0023 C   0  0  0  0  0  0  0  0  0  0  0  0
  -26.2929    0.6153   26.8252 C   0  0  0  0  0  0  0  0  0  0  0  0
  -28.0364   -1.5062   31.0706 C   0  0  0  0  0  0  0  0  0  0  0  0
  -26.6366   -1.6928   31.0667 C   0  0  0  0  0  0  0  0  0  0  0  0
  -25.8598   -1.3222   30.0431 C   0  0  0  0  0  0  0  0  0  0  0  0
  3  4  1  0
  1  2  2  0
  2 10  1  0
 10 11  2  0
 11 12  1  0
 12  3  2  0
  3  1  1  0
  4  5  2  0
  5  6  1  0
  6  7  2  0
  7  8  1  0
  8  9  2  0
  9  4  1  0
M  END

$$$$
