No_404-gen_results/8p0m/2024-11-27-11-27-31/
     RDKit          3D

 32 35  0  0  0  0  0  0  0  0999 V2000
  -28.0162   -0.8135   28.8779 C   0  0  0  0  0  0  0  0  0  0  0  0
  -28.4690   -0.7850   29.8287 C   0  0  0  0  0  0  0  0  0  0  0  0
  -27.0871    0.2903   28.6377 C   0  0  0  0  0  0  0  0  0  0  0  0
  -26.7676    1.0274   29.4716 C   0  0  0  0  0  0  0  0  0  0  0  0
  -28.2764    0.0268   31.0145 C   0  0  0  0  0  0  0  0  0  0  0  0
  -27.3287    1.0538   30.7535 C   0  0  0  0  0  0  0  0  0  0  0  0
  -26.3859    0.3011   27.2661 C   0  0  0  0  0  0  0  0  0  0  0  0
  -26.0047    1.5465   26.8605 C   0  0  0  0  0  0  0  0  0  0  0  0
  -25.5570    2.5092   27.8635 C   0  0  0  0  0  0  0  0  0  0  0  0
  -26.1092    2.3544   29.1799 C   0  0  0  0  0  0  0  0  0  0  0  0
  -24.8274    3.7021   27.4472 C   0  0  0  0  0  0  0  0  0  0  0  0
  -24.2650    3.7796   26.2941 O   0  0  0  0  0  0  0  0  0  0  0  0
  -25.0393    4.8085   28.0577 O   0  0  0  0  0  0  0  0  0  0  0  0
  -29.3259   -1.9633   30.2605 O   0  0  0  0  0  0  0  0  0  0  0  0
  -28.9002   -3.2297   30.4459 C   0  0  0  0  0  0  0  0  0  0  0  0
  -29.8924   -4.2419   30.3582 C   0  0  0  0  0  0  0  0  0  0  0  0
  -30.6150   -4.5071   31.4731 Br  0  0  0  0  0  0  0  0  0  0  0  0
  -29.1047   -5.3327   29.7944 N   0  0  0  0  0  0  0  0  0  0  0  0
  -30.7880   -3.9143   29.0860 C   0  0  0  0  0  0  0  0  0  0  0  0
  -30.9306   -4.9155   28.2788 O   0  0  0  0  0  0  0  0  0  0  0  0
  -31.3898   -2.8912   28.9355 O   0  0  0  0  0  0  0  0  0  0  0  0
  -25.2821    6.0156   27.4355 C   0  0  0  0  0  0  0  0  0  0  0  0
  -25.8827    7.1010   28.1994 C   0  0  0  0  0  0  0  0  0  0  0  0
  -26.1210    8.2202   27.5230 C   0  0  0  0  0  0  0  0  0  0  0  0
  -26.7939    9.2938   28.2488 C   0  0  0  0  0  0  0  0  0  0  0  0
  -27.1531    9.1159   29.5788 C   0  0  0  0  0  0  0  0  0  0  0  0
  -26.8297    7.9309   30.2074 C   0  0  0  0  0  0  0  0  0  0  0  0
  -26.1516    6.8970   29.5510 C   0  0  0  0  0  0  0  0  0  0  0  0
  -27.1335    7.7368   31.6773 C   0  0  0  0  0  0  0  0  0  0  0  0
  -27.1698    6.6099   32.1671 C   0  0  0  0  0  0  0  0  0  0  0  0
  -26.4698    5.5193   31.4762 C   0  0  0  0  0  0  0  0  0  0  0  0
  -26.0496    5.6800   30.2041 C   0  0  0  0  0  0  0  0  0  0  0  0
  9 11  1  0
 11 12  2  0
 11 13  1  0
  2 14  1  0
 14 15  1  0
 15 16  1  0
 16 17  1  0
 16 18  1  0
 16 19  1  0
 19 20  2  0
 19 21  1  0
 13 22  1  0
 22 23  1  0
  4 10  2  0
 10  9  1  0
  9  8  2  0
  8  7  1  0
  7  3  2  0
 23 24  2  0
 24 25  1  0
 25 26  2  0
 26 27  1  0
 28 23  1  0
  1  2  2  0
  2  5  1  0
  5  6  2  0
  6  4  1  0
  4  3  1  0
  3  1  1  0
 27 28  2  0
 28 32  1  0
 32 31  2  0
 31 30  1  0
 30 29  2  0
 29 27  1  0
M  END

$$$$
