No_4035-gen_results/8p0m/2024-11-27-11-27-31/
     RDKit          3D

 19 21  0  0  0  0  0  0  0  0999 V2000
  -28.0162   -0.8135   28.8779 C   0  0  0  0  0  0  0  0  0  0  0  0
  -27.0636   -0.1189   28.6079 C   0  0  0  0  0  0  0  0  0  0  0  0
  -26.9287    1.1713   29.0083 C   0  0  0  0  0  0  0  0  0  0  0  0
  -25.7702    2.0341   28.6884 C   0  0  0  0  0  0  0  0  0  0  0  0
  -24.7141    1.4431   27.9188 C   0  0  0  0  0  0  0  0  0  0  0  0
  -24.8590    0.0783   27.5836 C   0  0  0  0  0  0  0  0  0  0  0  0
  -25.9647   -0.6606   27.9164 C   0  0  0  0  0  0  0  0  0  0  0  0
  -29.1778   -0.3051   28.9638 N   0  0  0  0  0  0  0  0  0  0  0  0
  -30.1765   -0.9070   29.7369 C   0  0  0  0  0  0  0  0  0  0  0  0
  -23.5156    2.1616   27.5794 C   0  0  0  0  0  0  0  0  0  0  0  0
  -23.3407    2.9653   27.0044 O   0  0  0  0  0  0  0  0  0  0  0  0
  -22.3603    1.4758   28.1185 O   0  0  0  0  0  0  0  0  0  0  0  0
  -31.5178   -0.6586   29.4893 C   0  0  0  0  0  0  0  0  0  0  0  0
  -29.8432   -1.8467   30.8052 C   0  0  0  0  0  0  0  0  0  0  0  0
  -28.5395   -2.0207   31.2135 C   0  0  0  0  0  0  0  0  0  0  0  0
  -27.5756   -1.7471   30.0201 C   0  0  0  0  0  0  0  0  0  0  0  0
  -29.6349    0.5679   27.9629 C   0  0  0  0  0  0  0  0  0  0  0  0
  -30.9591    0.7916   27.7353 C   0  0  0  0  0  0  0  0  0  0  0  0
  -31.8708    0.2934   28.5876 C   0  0  0  0  0  0  0  0  0  0  0  0
  1  2  1  0
  1  8  1  0
  8  9  1  0
  5 10  1  0
 10 11  2  0
 10 12  1  0
  9 14  1  0
 14 15  1  0
  1 16  1  0
 15 16  1  0
  8 17  1  0
 13 19  1  0
 18 19  1  0
  9 13  1  0
 18 17  1  0
  2  3  2  0
  3  4  1  0
  4  5  2  0
  5  6  1  0
  6  7  2  0
  7  2  1  0
M  END

$$$$
