No_4442-gen_results/8p0m/2024-11-27-11-27-31/
     RDKit          3D

 19 20  0  0  0  0  0  0  0  0999 V2000
  -28.0162   -0.8135   28.8779 C   0  0  0  0  0  0  0  0  0  0  0  0
  -28.4690   -0.7850   29.8287 C   0  0  0  0  0  0  0  0  0  0  0  0
  -26.5042   -0.7777   28.8766 C   0  0  0  0  0  0  0  0  0  0  0  0
  -25.8103   -0.8531   30.1028 C   0  0  0  0  0  0  0  0  0  0  0  0
  -27.9906   -0.8916   31.2257 C   0  0  0  0  0  0  0  0  0  0  0  0
  -26.6042   -0.8676   31.2652 C   0  0  0  0  0  0  0  0  0  0  0  0
  -24.3894   -0.8049   30.1638 C   0  0  0  0  0  0  0  0  0  0  0  0
  -23.8172    0.4762   29.9118 C   0  0  0  0  0  0  0  0  0  0  0  0
  -22.5010    0.5449   29.4097 C   0  0  0  0  0  0  0  0  0  0  0  0
  -21.7696   -0.6524   29.2129 C   0  0  0  0  0  0  0  0  0  0  0  0
  -23.6812   -1.3591   31.3252 C   0  0  0  0  0  0  0  0  0  0  0  0
  -23.9090   -1.7904   28.9731 C   0  0  0  0  0  0  0  0  0  0  0  0
  -22.4164   -1.7632   29.0626 N   0  0  0  0  0  0  0  0  0  0  0  0
  -24.5165    1.7201   30.1637 C   0  0  0  0  0  0  0  0  0  0  0  0
  -24.7412    2.1764   31.2811 O   0  0  0  0  0  0  0  0  0  0  0  0
  -25.5130    1.9337   29.2602 F   0  0  0  0  0  0  0  0  0  0  0  0
  -30.0756   -0.8558   29.8157 C   0  0  0  0  0  0  0  0  0  0  0  0
  -30.7344    0.0087   30.4841 O   0  0  0  0  0  0  0  0  0  0  0  0
  -30.6143   -1.6395   29.0839 O   0  0  0  0  0  0  0  0  0  0  0  0
  4  7  1  0
  7  8  1  0
  9 10  1  0
  7 11  1  0
  7 12  1  0
 10 13  1  0
 12 13  1  0
  8 14  1  0
 14 15  2  0
 14 16  1  0
  2 17  1  0
 17 18  1  0
 17 19  2  0
  8  9  1  0
  1  2  2  0
  2  5  1  0
  5  6  2  0
  6  4  1  0
  4  3  2  0
  3  1  1  0
M  END

$$$$
