No_4435-gen_results/8p0m/2024-11-27-11-27-31/
     RDKit          3D

 15 16  0  0  0  0  0  0  0  0999 V2000
  -28.0162   -0.8135   28.8779 C   0  0  0  0  0  0  0  0  0  0  0  0
  -27.0636   -0.1190   28.6079 C   0  0  0  0  0  0  0  0  0  0  0  0
  -26.8756    1.1325   28.9134 C   0  0  0  0  0  0  0  0  0  0  0  0
  -25.6883    1.9515   28.5672 C   0  0  0  0  0  0  0  0  0  0  0  0
  -24.6394    1.2834   27.8753 C   0  0  0  0  0  0  0  0  0  0  0  0
  -23.4556    1.9996   27.5653 C   0  0  0  0  0  0  0  0  0  0  0  0
  -29.0919   -0.2290   29.6906 C   0  0  0  0  0  0  0  0  0  0  0  0
  -29.0369    1.0636   30.0407 C   0  0  0  0  0  0  0  0  0  0  0  0
  -27.9034    1.8034   29.6856 C   0  0  0  0  0  0  0  0  0  0  0  0
  -25.9441    3.3169   27.9334 C   0  0  0  0  0  0  0  0  0  0  0  0
  -24.7079    4.1517   27.6546 C   0  0  0  0  0  0  0  0  0  0  0  0
  -23.6399    3.3449   27.0249 C   0  0  0  0  0  0  0  0  0  0  0  0
  -24.9250    2.3268   30.0493 C   0  0  0  0  0  0  0  0  0  0  0  0
  -25.3954    3.1737   30.7043 O   0  0  0  0  0  0  0  0  0  0  0  0
  -23.9432    1.6017   30.3544 O   0  0  0  0  0  0  0  0  0  0  0  0
  3  4  1  0
  4  5  1  0
  4 10  1  0
 10 11  1  0
  6 12  1  0
 11 12  1  0
  4 13  1  0
 13 14  2  0
 13 15  1  0
  5  6  1  0
  1  2  2  0
  2  3  1  0
  3  9  2  0
  9  8  1  0
  8  7  2  0
  7  1  1  0
M  END

$$$$
