No_4019-gen_results/8p0m/2024-11-27-11-27-31/
     RDKit          3D

 18 20  0  0  0  0  0  0  0  0999 V2000
  -28.0162   -0.8135   28.8779 C   0  0  0  0  0  0  0  0  0  0  0  0
  -27.0636   -0.1189   28.6079 C   0  0  0  0  0  0  0  0  0  0  0  0
  -26.9287    1.1713   29.0083 C   0  0  0  0  0  0  0  0  0  0  0  0
  -27.9560    1.7411   29.7840 C   0  0  0  0  0  0  0  0  0  0  0  0
  -29.0569   -0.3271   29.7466 C   0  0  0  0  0  0  0  0  0  0  0  0
  -28.9828    0.9722   30.1516 C   0  0  0  0  0  0  0  0  0  0  0  0
  -25.5466   -0.6321   27.4810 Br  0  0  0  0  0  0  0  0  0  0  0  0
  -30.0759    1.4958   31.0309 C   0  0  0  0  0  0  0  0  0  0  0  0
  -29.7990    2.3758   31.8298 N   0  0  0  0  0  0  0  0  0  0  0  0
  -31.2055    0.9738   30.9045 O   0  0  0  0  0  0  0  0  0  0  0  0
  -30.7980    2.9823   32.7423 C   0  0  0  0  0  0  0  0  0  0  0  0
  -30.3670    3.9376   33.3488 C   0  0  0  0  0  0  0  0  0  0  0  0
  -29.0232    4.4860   33.3551 C   0  0  0  0  0  0  0  0  0  0  0  0
  -28.0926    3.8132   32.4763 C   0  0  0  0  0  0  0  0  0  0  0  0
  -28.4935    2.8281   31.7920 C   0  0  0  0  0  0  0  0  0  0  0  0
  -27.5487    2.4728   30.7571 C   0  0  0  0  0  0  0  0  0  0  0  0
  -26.2556    3.2652   30.6450 C   0  0  0  0  0  0  0  0  0  0  0  0
  -25.8639    4.0713   31.6387 C   0  0  0  0  0  0  0  0  0  0  0  0
  2  7  1  0
  6  8  1  0
  8  9  1  0
  8 10  2  0
  9 11  1  0
 12 13  1  0
  9 15  1  0
 14 15  1  0
  4 16  1  0
 15 16  1  0
 16 17  1  0
 17 18  2  0
 11 12  1  0
 13 14  1  0
  1  2  2  0
  2  3  1  0
  3  4  2  0
  4  6  1  0
  6  5  2  0
  5  1  1  0
M  END

$$$$
