No_4446-gen_results/8p0m/2024-11-27-11-27-31/
     RDKit          3D

 19 20  0  0  0  0  0  0  0  0999 V2000
  -28.0162   -0.8135   28.8779 C   0  0  0  0  0  0  0  0  0  0  0  0
  -28.4690   -0.7850   29.8287 C   0  0  0  0  0  0  0  0  0  0  0  0
  -28.1960    0.3478   28.0550 C   0  0  0  0  0  0  0  0  0  0  0  0
  -27.4421    0.5100   26.7946 C   0  0  0  0  0  0  0  0  0  0  0  0
  -26.1689   -0.0794   26.6787 C   0  0  0  0  0  0  0  0  0  0  0  0
  -25.7312   -0.9607   27.6875 C   0  0  0  0  0  0  0  0  0  0  0  0
  -26.5043   -1.2222   28.7582 C   0  0  0  0  0  0  0  0  0  0  0  0
  -28.4210   -2.0451   30.7337 C   0  0  0  0  0  0  0  0  0  0  0  0
  -28.6416   -3.0482   30.3342 C   0  0  0  0  0  0  0  0  0  0  0  0
  -29.6598   -3.6706   30.7091 O   0  0  0  0  0  0  0  0  0  0  0  0
  -27.7647   -3.8429   29.6667 O   0  0  0  0  0  0  0  0  0  0  0  0
  -27.8033    1.4400   25.7283 C   0  0  0  0  0  0  0  0  0  0  0  0
  -29.1023    1.4687   25.4079 C   0  0  0  0  0  0  0  0  0  0  0  0
  -27.3758    2.8607   26.2000 C   0  0  0  0  0  0  0  0  0  0  0  0
  -26.9177    1.0934   24.4890 C   0  0  0  0  0  0  0  0  0  0  0  0
  -25.4666    0.0154   25.6052 N   0  0  0  0  0  0  0  0  0  0  0  0
  -25.7094    0.6129   24.5459 C   0  0  0  0  0  0  0  0  0  0  0  0
  -29.9417    2.4224   25.5927 C   0  0  0  0  0  0  0  0  0  0  0  0
  -29.7629    0.2113   25.0108 C   0  0  0  0  0  0  0  0  0  0  0  0
  1  2  2  3
  1  3  1  0
  3  4  1  0
  4  5  1  0
  5  6  1  0
  1  7  1  0
  6  7  1  0
  2  8  1  0
  8  9  1  0
  9 10  2  0
  9 11  1  0
  4 12  1  0
 12 13  1  0
 12 14  1  0
 12 15  1  0
  5 16  1  0
 13 18  2  0
 13 19  1  0
 16 17  1  0
 17 15  1  0
M  END

$$$$
