No_4281-gen_results/8p0m/2024-11-27-11-27-31/
     RDKit          3D

 20 21  0  0  0  0  0  0  0  0999 V2000
  -28.1229   -1.3353   28.4874 O   0  0  0  0  0  0  0  0  0  0  0  0
  -27.4806   -0.4044   28.7094 C   0  0  0  0  0  0  0  0  0  0  0  0
  -26.3804   -0.0867   27.9394 C   0  0  0  0  0  0  0  0  0  0  0  0
  -27.6664    0.4468   29.8988 N   0  0  0  0  0  0  0  0  0  0  0  0
  -25.1773   -0.4388   28.3946 C   0  0  0  0  0  0  0  0  0  0  0  0
  -26.5259    0.6036   26.6867 C   0  0  0  0  0  0  0  0  0  0  0  0
  -23.9372    0.0372   27.6524 C   0  0  0  0  0  0  0  0  0  0  0  0
  -25.3755    0.9746   25.9410 C   0  0  0  0  0  0  0  0  0  0  0  0
  -24.0997    0.7141   26.4562 C   0  0  0  0  0  0  0  0  0  0  0  0
  -28.7466    0.0997   30.7992 C   0  0  0  0  0  0  0  0  0  0  0  0
  -26.8476    1.5216   30.1913 C   0  0  0  0  0  0  0  0  0  0  0  0
  -27.2814    2.6263   30.2382 C   0  0  0  0  0  0  0  0  0  0  0  0
  -27.0826    3.5669   29.7920 C   0  0  0  0  0  0  0  0  0  0  0  0
  -26.0466    3.6985   28.6895 C   0  0  0  0  0  0  0  0  0  0  0  0
  -24.8912    2.9491   28.9750 C   0  0  0  0  0  0  0  0  0  0  0  0
  -24.8132    2.3537   30.1713 C   0  0  0  0  0  0  0  0  0  0  0  0
  -25.4856    1.5771   29.8869 C   0  0  0  0  0  0  0  0  0  0  0  0
  -24.9185    0.5636   30.9641 C   0  0  0  0  0  0  0  0  0  0  0  0
  -23.6119    0.5612   31.3756 C   0  0  0  0  0  0  0  0  0  0  0  0
  -25.7512   -0.4631   31.4154 C   0  0  0  0  0  0  0  0  0  0  0  0
  1  2  2  0
  2  3  1  0
  2  4  1  0
  4 10  1  0
  4 11  1  0
 11 12  2  0
 12 13  1  0
 13 14  1  0
 14 15  2  0
 15 16  1  0
 11 17  1  0
 16 17  1  0
 17 18  1  0
 18 19  2  0
 18 20  1  0
  3  5  2  0
  5  7  1  0
  7  9  2  0
  9  8  1  0
  8  6  2  0
  6  3  1  0
M  END

$$$$
