No_4635-gen_results/8p0m/2024-11-27-11-27-31/
     RDKit          3D

 23 25  0  0  0  0  0  0  0  0999 V2000
  -28.0162   -0.8135   28.8779 C   0  0  0  0  0  0  0  0  0  0  0  0
  -27.0636   -0.1189   28.6079 C   0  0  0  0  0  0  0  0  0  0  0  0
  -25.7923   -0.4302   29.0761 C   0  0  0  0  0  0  0  0  0  0  0  0
  -24.5456    0.3494   28.8225 C   0  0  0  0  0  0  0  0  0  0  0  0
  -23.2409    0.0217   29.3323 C   0  0  0  0  0  0  0  0  0  0  0  0
  -27.8820   -1.8995   29.8633 C   0  0  0  0  0  0  0  0  0  0  0  0
  -26.6526   -2.3141   30.3138 C   0  0  0  0  0  0  0  0  0  0  0  0
  -25.5153   -1.5607   29.9787 C   0  0  0  0  0  0  0  0  0  0  0  0
  -23.2072   -1.2289   30.0311 C   0  0  0  0  0  0  0  0  0  0  0  0
  -24.2434   -1.9361   30.3879 C   0  0  0  0  0  0  0  0  0  0  0  0
  -24.5768    1.5651   27.9574 C   0  0  0  0  0  0  0  0  0  0  0  0
  -24.7953    2.6978   28.5594 C   0  0  0  0  0  0  0  0  0  0  0  0
  -25.0608    3.8596   27.7884 C   0  0  0  0  0  0  0  0  0  0  0  0
  -24.4150    1.4468   26.6185 C   0  0  0  0  0  0  0  0  0  0  0  0
  -24.5209    2.5616   25.7872 C   0  0  0  0  0  0  0  0  0  0  0  0
  -24.7599    3.8235   26.4100 C   0  0  0  0  0  0  0  0  0  0  0  0
  -29.0015   -2.6393   30.1237 O   0  0  0  0  0  0  0  0  0  0  0  0
  -28.8807   -3.9193   30.5485 C   0  0  0  0  0  0  0  0  0  0  0  0
  -30.0830   -4.7207   30.1787 C   0  0  0  0  0  0  0  0  0  0  0  0
  -31.0934   -4.1634   30.5387 O   0  0  0  0  0  0  0  0  0  0  0  0
  -32.2744   -4.5040   30.0653 C   0  0  0  0  0  0  0  0  0  0  0  0
  -33.3316   -3.7750   29.7821 C   0  0  0  0  0  0  0  0  0  0  0  0
  -34.5354   -4.1870   29.2111 C   0  0  0  0  0  0  0  0  0  0  0  0
  4 11  1  0
  6 17  1  0
 17 18  1  0
 18 19  1  0
 19 20  1  0
 20 21  1  0
 21 22  2  3
 22 23  1  0
  1  2  2  0
  2  3  1  0
  8  7  1  0
  7  6  2  0
  6  1  1  0
  3  4  2  0
  4  5  1  0
  5  9  2  0
  9 10  1  0
 10  8  2  0
  8  3  1  0
 11 12  2  0
 12 13  1  0
 13 16  2  0
 16 15  1  0
 15 14  2  0
 14 11  1  0
M  END

$$$$
