No_4502-gen_results/8p0m/2024-11-27-11-27-31/
     RDKit          3D

 16 17  0  0  0  0  0  0  0  0999 V2000
  -28.0727   -1.2542   28.5316 F   0  0  0  0  0  0  0  0  0  0  0  0
  -28.2662   -0.4214   29.1931 C   0  0  0  0  0  0  0  0  0  0  0  0
  -29.4445    0.0759   29.3394 C   0  0  0  0  0  0  0  0  0  0  0  0
  -29.7073    1.1743   30.2277 C   0  0  0  0  0  0  0  0  0  0  0  0
  -28.5970    1.7109   30.9110 C   0  0  0  0  0  0  0  0  0  0  0  0
  -27.3024    1.1821   30.7905 C   0  0  0  0  0  0  0  0  0  0  0  0
  -27.1217    0.1218   29.9802 C   0  0  0  0  0  0  0  0  0  0  0  0
  -25.9562   -0.4159   29.8260 F   0  0  0  0  0  0  0  0  0  0  0  0
  -31.0339    1.7554   30.3761 C   0  0  0  0  0  0  0  0  0  0  0  0
  -31.1976    2.7785   31.0762 N   0  0  0  0  0  0  0  0  0  0  0  0
  -32.0860    1.1299   29.6797 C   0  0  0  0  0  0  0  0  0  0  0  0
  -32.2469    3.3228   31.1865 C   0  0  0  0  0  0  0  0  0  0  0  0
  -33.3457    1.7542   29.8252 C   0  0  0  0  0  0  0  0  0  0  0  0
  -34.5206    1.2077   29.1920 C   0  0  0  0  0  0  0  0  0  0  0  0
  -33.3804    2.8656   30.6094 C   0  0  0  0  0  0  0  0  0  0  0  0
  -35.5616    1.6735   29.2329 N   0  0  0  0  0  0  0  0  0  0  0  0
  1  2  1  0
  7  8  1  0
  4  9  1  0
 13 14  1  0
 14 16  2  0
  2  3  2  0
  3  4  1  0
  4  5  2  0
  5  6  1  0
  6  7  2  0
  7  2  1  0
  9 10  2  0
 10 12  1  0
 12 15  2  0
 15 13  1  0
 13 11  2  0
 11  9  1  0
M  END

$$$$
