No_4630-gen_results/8p0m/2024-11-27-11-27-31/
     RDKit          3D

 17 18  0  0  0  0  0  0  0  0999 V2000
  -28.0162   -0.8135   28.8779 C   0  0  0  0  0  0  0  0  0  0  0  0
  -28.4690   -0.7850   29.8287 C   0  0  0  0  0  0  0  0  0  0  0  0
  -26.6340   -1.0216   28.8020 N   0  0  0  0  0  0  0  0  0  0  0  0
  -26.1508   -1.2905   30.0652 C   0  0  0  0  0  0  0  0  0  0  0  0
  -28.1072   -1.1224   31.1978 C   0  0  0  0  0  0  0  0  0  0  0  0
  -26.6990   -1.3581   31.1989 N   0  0  0  0  0  0  0  0  0  0  0  0
  -24.3484   -1.6111   30.0503 Cl  0  0  0  0  0  0  0  0  0  0  0  0
  -25.7482   -0.9412   27.6943 C   0  0  0  0  0  0  0  0  0  0  0  0
  -25.7891    0.2921   26.9459 C   0  0  0  0  0  0  0  0  0  0  0  0
  -24.8758    0.7101   26.2459 C   0  0  0  0  0  0  0  0  0  0  0  0
  -25.0540    1.9370   25.4475 C   0  0  0  0  0  0  0  0  0  0  0  0
  -26.1428    2.7409   25.7159 C   0  0  0  0  0  0  0  0  0  0  0  0
  -26.8499    1.3129   27.1163 C   0  0  0  0  0  0  0  0  0  0  0  0
  -26.9906    2.4236   26.5044 C   0  0  0  0  0  0  0  0  0  0  0  0
  -30.1099   -0.4909   29.8405 C   0  0  0  0  0  0  0  0  0  0  0  0
  -30.4725    0.4638   30.1906 O   0  0  0  0  0  0  0  0  0  0  0  0
  -30.8016   -1.5778   29.7518 O   0  0  0  0  0  0  0  0  0  0  0  0
  1  3  1  0
  3  4  1  0
  2  5  1  0
  4  6  1  0
  5  6  1  0
  4  7  1  0
  3  8  1  0
  8  9  1  0
  2 15  1  0
 15 16  1  0
 15 17  2  0
  1  2  1  0
  9 10  2  0
 10 11  1  0
 11 12  2  0
 12 14  1  0
 14 13  2  0
 13  9  1  0
M  END

$$$$
