No_4247-gen_results/8p0m/2024-11-27-11-27-31/
     RDKit          3D

 18 19  0  0  0  0  0  0  0  0999 V2000
  -28.0162   -0.8135   28.8779 C   0  0  0  0  0  0  0  0  0  0  0  0
  -28.4690   -0.7850   29.8287 C   0  0  0  0  0  0  0  0  0  0  0  0
  -27.0871    0.2903   28.6377 C   0  0  0  0  0  0  0  0  0  0  0  0
  -26.2516    0.4114   27.4223 C   0  0  0  0  0  0  0  0  0  0  0  0
  -29.4309   -1.9307   30.2714 C   0  0  0  0  0  0  0  0  0  0  0  0
  -28.3085    0.1532   30.9130 C   0  0  0  0  0  0  0  0  0  0  0  0
  -27.4737    1.2218   30.7655 C   0  0  0  0  0  0  0  0  0  0  0  0
  -26.7760    1.2939   29.5975 C   0  0  0  0  0  0  0  0  0  0  0  0
  -25.1900    1.0303   27.2209 C   0  0  0  0  0  0  0  0  0  0  0  0
  -24.9019    2.0414   28.2730 C   0  0  0  0  0  0  0  0  0  0  0  0
  -25.5961    2.1153   29.4321 C   0  0  0  0  0  0  0  0  0  0  0  0
  -29.1563   -2.7533   31.0191 O   0  0  0  0  0  0  0  0  0  0  0  0
  -30.5703   -1.9133   29.6823 O   0  0  0  0  0  0  0  0  0  0  0  0
  -23.6674    2.9018   27.9553 C   0  0  0  0  0  0  0  0  0  0  0  0
  -22.9106    2.6818   26.9689 O   0  0  0  0  0  0  0  0  0  0  0  0
  -25.2487    3.1501   30.4583 C   0  0  0  0  0  0  0  0  0  0  0  0
  -25.6235    4.2467   30.4395 O   0  0  0  0  0  0  0  0  0  0  0  0
  -24.4680    2.6391   31.4496 O   0  0  0  0  0  0  0  0  0  0  0  0
  2  5  1  0
  5 12  2  0
  5 13  1  0
 10 14  1  0
 14 15  2  0
 11 16  1  0
 16 17  2  0
 16 18  1  0
  3  4  2  0
  4  9  1  0
  9 10  2  0
 10 11  1  0
 11  8  2  0
  1  2  2  0
  2  6  1  0
  6  7  2  0
  7  8  1  0
  8  3  1  0
  3  1  1  0
M  END

$$$$
