No_4965-gen_results/8p0m/2024-11-27-11-27-31/
     RDKit          3D

 17 18  0  0  0  0  0  0  0  0999 V2000
  -28.0162   -0.8135   28.8779 C   0  0  0  0  0  0  0  0  0  0  0  0
  -28.4690   -0.7850   29.8287 C   0  0  0  0  0  0  0  0  0  0  0  0
  -26.5041   -0.7777   28.8766 C   0  0  0  0  0  0  0  0  0  0  0  0
  -25.8103   -0.8531   30.1028 C   0  0  0  0  0  0  0  0  0  0  0  0
  -27.9906   -0.8916   31.2257 C   0  0  0  0  0  0  0  0  0  0  0  0
  -26.6042   -0.8676   31.2652 C   0  0  0  0  0  0  0  0  0  0  0  0
  -30.0739   -0.8360   29.8615 C   0  0  0  0  0  0  0  0  0  0  0  0
  -30.6891   -1.6554   30.2229 O   0  0  0  0  0  0  0  0  0  0  0  0
  -30.6139    0.2846   29.2227 N   0  0  0  0  0  0  0  0  0  0  0  0
  -29.9311    1.4152   28.7449 C   0  0  0  0  0  0  0  0  0  0  0  0
  -29.6964    2.3228   29.6765 C   0  0  0  0  0  0  0  0  0  0  0  0
  -28.8409    3.4653   29.3143 C   0  0  0  0  0  0  0  0  0  0  0  0
  -28.3114    4.4411   30.2451 C   0  0  0  0  0  0  0  0  0  0  0  0
  -28.7476    4.2971   31.6046 C   0  0  0  0  0  0  0  0  0  0  0  0
  -29.5508    3.1950   31.9517 C   0  0  0  0  0  0  0  0  0  0  0  0
  -29.9353    2.2341   31.0588 C   0  0  0  0  0  0  0  0  0  0  0  0
  -29.8097    1.5266   27.5259 O   0  0  0  0  0  0  0  0  0  0  0  0
  2  7  1  0
  7  8  2  0
  7  9  1  0
  9 10  1  0
 10 11  1  0
 10 17  2  0
 11 12  2  0
 12 13  1  0
 13 14  2  0
 14 15  1  0
 15 16  2  0
 16 11  1  0
  1  2  2  0
  2  5  1  0
  5  6  2  0
  6  4  1  0
  4  3  2  0
  3  1  1  0
M  END

$$$$
