No_4569-gen_results/8p0m/2024-11-27-11-27-31/
     RDKit          3D

 30 35  0  0  0  0  0  0  0  0999 V2000
  -28.0162   -0.8135   28.8779 C   0  0  0  0  0  0  0  0  0  0  0  0
  -28.4690   -0.7850   29.8287 C   0  0  0  0  0  0  0  0  0  0  0  0
  -28.1960    0.3478   28.0550 C   0  0  0  0  0  0  0  0  0  0  0  0
  -29.0191    1.3501   28.3782 C   0  0  0  0  0  0  0  0  0  0  0  0
  -29.4107    0.1803   30.3782 C   0  0  0  0  0  0  0  0  0  0  0  0
  -29.6059    1.2495   29.6193 C   0  0  0  0  0  0  0  0  0  0  0  0
  -27.4597    0.3802   26.7091 C   0  0  0  0  0  0  0  0  0  0  0  0
  -27.8834    0.5390   25.7073 N   0  0  0  0  0  0  0  0  0  0  0  0
  -25.9412    0.2046   26.7840 C   0  0  0  0  0  0  0  0  0  0  0  0
  -25.1451    0.0673   27.9085 C   0  0  0  0  0  0  0  0  0  0  0  0
  -23.8224    0.0105   27.8402 C   0  0  0  0  0  0  0  0  0  0  0  0
  -23.0462   -0.2974   29.0283 C   0  0  0  0  0  0  0  0  0  0  0  0
  -23.6738   -0.7737   30.1673 C   0  0  0  0  0  0  0  0  0  0  0  0
  -25.0499   -0.8422   30.2007 C   0  0  0  0  0  0  0  0  0  0  0  0
  -25.7707   -0.4629   29.1617 C   0  0  0  0  0  0  0  0  0  0  0  0
  -26.8530   -0.7434   29.2984 N   0  0  0  0  0  0  0  0  0  0  0  0
  -26.6520   -2.0293   30.1945 C   0  0  0  0  0  0  0  0  0  0  0  0
  -25.5358   -0.4550   31.4296 N   0  0  0  0  0  0  0  0  0  0  0  0
  -28.8024   -2.0655   30.5878 C   0  0  0  0  0  0  0  0  0  0  0  0
  -25.5577   -2.7536   30.1658 C   0  0  0  0  0  0  0  0  0  0  0  0
  -27.8297   -2.6429   30.8110 C   0  0  0  0  0  0  0  0  0  0  0  0
  -25.4826    0.4299   25.5551 N   0  0  0  0  0  0  0  0  0  0  0  0
  -27.5913    0.7324   24.4600 C   0  0  0  0  0  0  0  0  0  0  0  0
  -26.0973    0.5281   24.4158 C   0  0  0  0  0  0  0  0  0  0  0  0
  -25.1432    0.8847   31.9688 C   0  0  0  0  0  0  0  0  0  0  0  0
  -26.1529    1.5706   32.6540 C   0  0  0  0  0  0  0  0  0  0  0  0
  -26.1002    2.8952   32.8220 C   0  0  0  0  0  0  0  0  0  0  0  0
  -24.9700    3.6227   32.2747 C   0  0  0  0  0  0  0  0  0  0  0  0
  -24.0198    2.8860   31.4912 C   0  0  0  0  0  0  0  0  0  0  0  0
  -24.1826    1.5754   31.2816 C   0  0  0  0  0  0  0  0  0  0  0  0
  3  7  1  0
  9 10  1  0
  1 16  1  0
 15 16  1  0
 16 17  1  0
 14 18  1  0
  2 19  1  0
 17 21  1  0
 19 21  1  0
 18 25  1  0
 20 17  1  0
 25 26  2  0
 26 27  1  0
 27 28  2  0
 28 29  1  0
 29 30  2  0
 30 25  1  0
  1  3  1  0
  3  4  2  0
  4  6  1  0
  6  5  2  0
  5  2  1  0
  2  1  2  0
  7  8  2  0
  8 23  1  0
 23 24  2  0
 24 22  1  0
 22  9  2  0
  9  7  1  0
 10 11  2  0
 11 12  1  0
 12 13  2  0
 13 14  1  0
 14 15  2  0
 15 10  1  0
M  END

$$$$
