No_4364-gen_results/8p0m/2024-11-27-11-27-31/
     RDKit          3D

 24 27  0  0  0  0  0  0  0  0999 V2000
  -28.0162   -0.8135   28.8779 C   0  0  0  0  0  0  0  0  0  0  0  0
  -28.4690   -0.7850   29.8287 C   0  0  0  0  0  0  0  0  0  0  0  0
  -26.5042   -0.7777   28.8766 C   0  0  0  0  0  0  0  0  0  0  0  0
  -25.8103   -0.8531   30.1028 C   0  0  0  0  0  0  0  0  0  0  0  0
  -27.9906   -0.8916   31.2257 C   0  0  0  0  0  0  0  0  0  0  0  0
  -26.6042   -0.8676   31.2652 C   0  0  0  0  0  0  0  0  0  0  0  0
  -29.9765   -0.8288   29.8497 N   0  0  0  0  0  0  0  0  0  0  0  0
  -30.7392   -1.6442   30.3465 C   0  0  0  0  0  0  0  0  0  0  0  0
  -32.1192   -1.5829   30.0929 C   0  0  0  0  0  0  0  0  0  0  0  0
  -30.5786    0.1345   29.0121 C   0  0  0  0  0  0  0  0  0  0  0  0
  -31.8719    0.2042   28.7437 C   0  0  0  0  0  0  0  0  0  0  0  0
  -32.6752   -0.7176   29.3432 C   0  0  0  0  0  0  0  0  0  0  0  0
  -24.3725   -0.7954   30.1306 C   0  0  0  0  0  0  0  0  0  0  0  0
  -23.6629   -1.2953   30.7744 C   0  0  0  0  0  0  0  0  0  0  0  0
  -23.8020    0.1377   29.0864 C   0  0  0  0  0  0  0  0  0  0  0  0
  -24.2241    1.0579   28.3807 C   0  0  0  0  0  0  0  0  0  0  0  0
  -25.0585    2.0209   28.7252 C   0  0  0  0  0  0  0  0  0  0  0  0
  -25.2792    3.0895   28.0456 C   0  0  0  0  0  0  0  0  0  0  0  0
  -24.8859    3.1479   26.6723 C   0  0  0  0  0  0  0  0  0  0  0  0
  -24.0718    2.1524   26.1540 C   0  0  0  0  0  0  0  0  0  0  0  0
  -23.6862    1.1469   26.9664 C   0  0  0  0  0  0  0  0  0  0  0  0
  -22.3099   -0.2508   29.0452 C   0  0  0  0  0  0  0  0  0  0  0  0
  -22.3474   -1.3823   30.9277 N   0  0  0  0  0  0  0  0  0  0  0  0
  -21.6571   -0.8567   30.0191 N   0  0  0  0  0  0  0  0  0  0  0  0
  2  7  1  0
  7  8  1  0
  7 10  1  0
  9 12  1  0
 11 12  1  0
  4 13  1  0
 15 16  1  0
  8  9  1  0
 11 10  1  0
 13 14  2  0
 14 23  1  0
 23 24  2  0
 24 22  1  0
 22 15  2  0
 15 13  1  0
  1  2  2  0
  2  5  1  0
  5  6  2  0
  6  4  1  0
  4  3  2  0
  3  1  1  0
 16 17  2  0
 17 18  1  0
 18 19  2  0
 19 20  1  0
 20 21  2  0
 21 16  1  0
M  END

$$$$
