No_4716-gen_results/8p0m/2024-11-27-11-27-31/
     RDKit          3D

 33 36  0  0  0  0  0  0  0  0999 V2000
  -28.0162   -0.8135   28.8779 C   0  0  0  0  0  0  0  0  0  0  0  0
  -27.0636   -0.1190   28.6079 C   0  0  0  0  0  0  0  0  0  0  0  0
  -25.7647   -0.3897   29.0360 C   0  0  0  0  0  0  0  0  0  0  0  0
  -24.5516    0.4058   28.7646 C   0  0  0  0  0  0  0  0  0  0  0  0
  -23.2300    0.1178   29.2575 C   0  0  0  0  0  0  0  0  0  0  0  0
  -22.1393    0.9427   28.9224 C   0  0  0  0  0  0  0  0  0  0  0  0
  -27.8294   -1.9287   29.8545 C   0  0  0  0  0  0  0  0  0  0  0  0
  -26.5882   -2.3272   30.2682 C   0  0  0  0  0  0  0  0  0  0  0  0
  -25.4565   -1.5432   29.9146 C   0  0  0  0  0  0  0  0  0  0  0  0
  -22.2302    1.9089   27.8723 C   0  0  0  0  0  0  0  0  0  0  0  0
  -24.5538    1.4700   27.7617 C   0  0  0  0  0  0  0  0  0  0  0  0
  -23.4471    2.1666   27.3764 C   0  0  0  0  0  0  0  0  0  0  0  0
  -28.9822   -2.7749   30.2590 C   0  0  0  0  0  0  0  0  0  0  0  0
  -28.8319   -4.0819   30.4004 N   0  0  0  0  0  0  0  0  0  0  0  0
  -29.8872   -4.9525   30.1937 C   0  0  0  0  0  0  0  0  0  0  0  0
  -30.7644   -4.7256   29.1952 C   0  0  0  0  0  0  0  0  0  0  0  0
  -31.6941   -5.7885   28.8566 C   0  0  0  0  0  0  0  0  0  0  0  0
  -31.6939   -6.9789   29.6001 C   0  0  0  0  0  0  0  0  0  0  0  0
  -30.8194   -7.1776   30.6351 C   0  0  0  0  0  0  0  0  0  0  0  0
  -29.8455   -6.1853   30.9597 C   0  0  0  0  0  0  0  0  0  0  0  0
  -29.9593   -2.1773   30.7798 O   0  0  0  0  0  0  0  0  0  0  0  0
  -32.6143   -7.8943   29.3103 F   0  0  0  0  0  0  0  0  0  0  0  0
  -23.6604    3.3428   26.1326 Cl  0  0  0  0  0  0  0  0  0  0  0  0
  -32.6129   -5.5778   27.7359 C   0  0  0  0  0  0  0  0  0  0  0  0
  -32.4212   -6.2242   26.6897 O   0  0  0  0  0  0  0  0  0  0  0  0
  -33.5838   -4.7997   27.8377 O   0  0  0  0  0  0  0  0  0  0  0  0
  -30.8399   -8.3553   31.4531 C   0  0  0  0  0  0  0  0  0  0  0  0
  -31.7100   -8.5035   32.4513 C   0  0  0  0  0  0  0  0  0  0  0  0
  -31.7151   -9.6637   33.1665 C   0  0  0  0  0  0  0  0  0  0  0  0
  -30.7655  -10.6804   32.8754 C   0  0  0  0  0  0  0  0  0  0  0  0
  -29.8944  -10.5546   31.8030 C   0  0  0  0  0  0  0  0  0  0  0  0
  -29.9096   -9.3650   31.0815 C   0  0  0  0  0  0  0  0  0  0  0  0
  -28.7858  -11.7848   31.4031 Cl  0  0  0  0  0  0  0  0  0  0  0  0
  3  4  1  0
  7 13  1  0
 13 14  1  0
 13 21  2  0
 18 22  1  0
 12 23  1  0
 17 24  1  0
 24 25  2  0
 24 26  1  0
 19 27  1  0
 31 33  1  0
 14 15  1  0
 15 16  2  0
 16 17  1  0
 17 18  2  0
 18 19  1  0
 19 20  2  0
 20 15  1  0
 27 28  2  0
 28 29  1  0
 29 30  2  0
 30 31  1  0
 31 32  2  0
 32 27  1  0
  1  2  2  0
  2  3  1  0
  3  9  2  0
  9  8  1  0
  8  7  2  0
  7  1  1  0
  4  5  2  0
  5  6  1  0
  6 10  2  0
 10 12  1  0
 12 11  2  0
 11  4  1  0
M  END

$$$$
