No_4535-gen_results/8p0m/2024-11-27-11-27-31/
     RDKit          3D

 15 16  0  0  0  0  0  0  0  0999 V2000
  -28.0162   -0.8135   28.8779 C   0  0  0  0  0  0  0  0  0  0  0  0
  -27.0636   -0.1189   28.6079 C   0  0  0  0  0  0  0  0  0  0  0  0
  -25.7647   -0.3897   29.0360 C   0  0  0  0  0  0  0  0  0  0  0  0
  -25.5296   -1.5302   29.9014 C   0  0  0  0  0  0  0  0  0  0  0  0
  -26.6888   -2.2893   30.1810 C   0  0  0  0  0  0  0  0  0  0  0  0
  -27.8727   -1.9508   29.7373 C   0  0  0  0  0  0  0  0  0  0  0  0
  -29.1941   -2.9228   30.2191 Cl  0  0  0  0  0  0  0  0  0  0  0  0
  -24.6825    0.5852   28.7027 C   0  0  0  0  0  0  0  0  0  0  0  0
  -24.4814    1.0480   27.5243 C   0  0  0  0  0  0  0  0  0  0  0  0
  -23.3225    1.8922   27.2607 C   0  0  0  0  0  0  0  0  0  0  0  0
  -22.2184    1.8667   28.0679 C   0  0  0  0  0  0  0  0  0  0  0  0
  -23.4658    0.5522   29.5580 C   0  0  0  0  0  0  0  0  0  0  0  0
  -22.2884    1.1738   29.2318 C   0  0  0  0  0  0  0  0  0  0  0  0
  -23.2856    2.5699   26.0380 O   0  0  0  0  0  0  0  0  0  0  0  0
  -27.0750    1.2080   27.4367 Cl  0  0  0  0  0  0  0  0  0  0  0  0
  6  7  1  0
  3  8  1  0
 10 14  1  0
  2 15  1  0
  1  2  2  0
  2  3  1  0
  3  4  2  0
  4  5  1  0
  5  6  2  0
  6  1  1  0
  8  9  2  0
  9 10  1  0
 10 11  2  0
 11 13  1  0
 13 12  2  0
 12  8  1  0
M  END

$$$$
