No_469-gen_results/8p0m/2024-11-27-11-27-31/
     RDKit          3D

 25 27  0  0  0  0  0  0  0  0999 V2000
  -28.0544   -1.0498   28.7246 N   0  0  0  0  0  0  0  0  0  0  0  0
  -26.9659   -0.4722   28.7709 C   0  0  0  0  0  0  0  0  0  0  0  0
  -25.8527   -0.9249   29.3786 C   0  0  0  0  0  0  0  0  0  0  0  0
  -24.5535   -0.2590   29.4587 C   0  0  0  0  0  0  0  0  0  0  0  0
  -24.4466    0.9713   28.7742 C   0  0  0  0  0  0  0  0  0  0  0  0
  -25.5916    1.4721   28.1074 C   0  0  0  0  0  0  0  0  0  0  0  0
  -26.6196    0.8423   28.1165 C   0  0  0  0  0  0  0  0  0  0  0  0
  -23.1422    1.6634   28.8431 C   0  0  0  0  0  0  0  0  0  0  0  0
  -22.3981    1.4517   28.0109 O   0  0  0  0  0  0  0  0  0  0  0  0
  -22.6824    2.0108   30.0163 O   0  0  0  0  0  0  0  0  0  0  0  0
  -28.5849   -1.1203   29.9894 C   0  0  0  0  0  0  0  0  0  0  0  0
  -28.1639   -2.0093   30.6092 O   0  0  0  0  0  0  0  0  0  0  0  0
  -29.7984   -0.4302   30.3255 C   0  0  0  0  0  0  0  0  0  0  0  0
  -30.5323   -0.9667   31.1616 C   0  0  0  0  0  0  0  0  0  0  0  0
  -30.1573   -1.4390   32.1306 O   0  0  0  0  0  0  0  0  0  0  0  0
  -31.9492   -0.9735   30.9581 N   0  0  0  0  0  0  0  0  0  0  0  0
  -32.5667   -0.3614   29.8714 C   0  0  0  0  0  0  0  0  0  0  0  0
  -33.7797   -0.7270   29.4297 C   0  0  0  0  0  0  0  0  0  0  0  0
  -34.3539   -0.1432   28.3020 C   0  0  0  0  0  0  0  0  0  0  0  0
  -33.6232    0.8500   27.5804 C   0  0  0  0  0  0  0  0  0  0  0  0
  -32.3555    1.1952   28.0033 C   0  0  0  0  0  0  0  0  0  0  0  0
  -31.8077    0.6213   29.1068 C   0  0  0  0  0  0  0  0  0  0  0  0
  -30.5619    0.1587   28.9825 C   0  0  0  0  0  0  0  0  0  0  0  0
  -32.8481   -1.5808   31.9546 C   0  0  0  0  0  0  0  0  0  0  0  0
  -32.3438   -2.2374   32.9465 C   0  0  0  0  0  0  0  0  0  0  0  0
  1  2  2  3
  2  3  1  0
  3  4  1  0
  4  5  1  0
  5  6  1  0
  2  7  1  0
  6  7  1  0
  5  8  1  0
  8  9  2  0
  8 10  1  0
  1 11  1  0
 11 12  2  0
 11 13  1  0
 13 14  1  0
 14 15  2  0
 14 16  1  0
 16 17  1  0
 13 23  1  0
 22 23  1  0
 16 24  1  0
 24 25  1  0
 17 18  2  0
 18 19  1  0
 19 20  2  0
 20 21  1  0
 21 22  2  0
 22 17  1  0
M  END

$$$$
