No_4523-gen_results/8p0m/2024-11-27-11-27-31/
     RDKit          3D

 29 32  0  0  0  0  0  0  0  0999 V2000
  -28.0162   -0.8135   28.8779 C   0  0  0  0  0  0  0  0  0  0  0  0
  -27.0636   -0.1189   28.6079 C   0  0  0  0  0  0  0  0  0  0  0  0
  -25.7647   -0.3897   29.0360 C   0  0  0  0  0  0  0  0  0  0  0  0
  -25.5296   -1.5302   29.9014 C   0  0  0  0  0  0  0  0  0  0  0  0
  -24.2910   -1.8751   30.3797 C   0  0  0  0  0  0  0  0  0  0  0  0
  -27.9084   -1.9224   29.8277 C   0  0  0  0  0  0  0  0  0  0  0  0
  -26.6512   -2.2902   30.3071 C   0  0  0  0  0  0  0  0  0  0  0  0
  -23.2204   -0.8110   30.2432 C   0  0  0  0  0  0  0  0  0  0  0  0
  -23.1592   -0.0547   29.0942 C   0  0  0  0  0  0  0  0  0  0  0  0
  -24.5183    0.4358   28.6945 C   0  0  0  0  0  0  0  0  0  0  0  0
  -24.4678    0.8945   27.2093 C   0  0  0  0  0  0  0  0  0  0  0  0
  -24.7428    1.8411   29.4462 C   0  0  0  0  0  0  0  0  0  0  0  0
  -24.2974    2.1040   26.7483 C   0  0  0  0  0  0  0  0  0  0  0  0
  -24.3742    3.2302   27.5472 C   0  0  0  0  0  0  0  0  0  0  0  0
  -24.5106    3.1394   28.9142 C   0  0  0  0  0  0  0  0  0  0  0  0
  -25.0283    1.7068   30.9310 C   0  0  0  0  0  0  0  0  0  0  0  0
  -25.7428    2.8276   31.4325 C   0  0  0  0  0  0  0  0  0  0  0  0
  -26.3758    2.5843   32.6647 C   0  0  0  0  0  0  0  0  0  0  0  0
  -27.4825    1.9106   32.7162 C   0  0  0  0  0  0  0  0  0  0  0  0
  -28.0189    1.5224   33.9627 C   0  0  0  0  0  0  0  0  0  0  0  0
  -28.8789    0.4847   34.0430 C   0  0  0  0  0  0  0  0  0  0  0  0
  -29.4407   -0.0314   32.8438 C   0  0  0  0  0  0  0  0  0  0  0  0
  -28.9671    0.3908   31.6409 C   0  0  0  0  0  0  0  0  0  0  0  0
  -27.9288    1.3480   31.6070 C   0  0  0  0  0  0  0  0  0  0  0  0
  -27.2550    1.0675   27.6502 C   0  0  0  0  0  0  0  0  0  0  0  0
  -28.5555    1.5861   27.5326 C   0  0  0  0  0  0  0  0  0  0  0  0
  -29.3675    1.5059   28.1434 C   0  0  0  0  0  0  0  0  0  0  0  0
  -30.5650    2.3060   27.9748 C   0  0  0  0  0  0  0  0  0  0  0  0
  -30.5691    3.0871   26.8971 C   0  0  0  0  0  0  0  0  0  0  0  0
  4  5  1  0
  5  8  1  0
  8  9  1  0
  3 10  1  0
  9 10  1  0
 10 11  1  0
 10 12  1  0
 13 14  1  0
 12 15  1  0
 14 15  1  0
 12 16  1  0
 16 17  1  0
 17 18  2  3
 18 19  1  0
  2 25  1  0
 25 26  2  3
 26 27  1  0
 27 28  2  3
 28 29  1  0
 11 13  1  0
 19 20  2  0
 20 21  1  0
 21 22  2  0
 22 23  1  0
 23 24  2  0
 24 19  1  0
  1  2  2  0
  2  3  1  0
  3  4  2  0
  4  7  1  0
  7  6  2  0
  6  1  1  0
M  END

$$$$
