No_4014-gen_results/8p0m/2024-11-27-11-27-31/
     RDKit          3D

 16 17  0  0  0  0  0  0  0  0999 V2000
  -28.0162   -0.8135   28.8779 C   0  0  0  0  0  0  0  0  0  0  0  0
  -27.0636   -0.1189   28.6079 C   0  0  0  0  0  0  0  0  0  0  0  0
  -26.8756    1.1325   28.9134 C   0  0  0  0  0  0  0  0  0  0  0  0
  -25.6883    1.9515   28.5672 C   0  0  0  0  0  0  0  0  0  0  0  0
  -24.6394    1.2834   27.8753 C   0  0  0  0  0  0  0  0  0  0  0  0
  -23.4556    1.9996   27.5653 C   0  0  0  0  0  0  0  0  0  0  0  0
  -25.7633   -0.7885   28.1430 C   0  0  0  0  0  0  0  0  0  0  0  0
  -24.6284   -0.0980   27.7264 C   0  0  0  0  0  0  0  0  0  0  0  0
  -29.1939   -0.0533   29.1226 C   0  0  0  0  0  0  0  0  0  0  0  0
  -29.1881    1.2621   29.3321 C   0  0  0  0  0  0  0  0  0  0  0  0
  -28.0159    1.9478   29.2313 C   0  0  0  0  0  0  0  0  0  0  0  0
  -23.2081    2.3397   26.2805 N   0  0  0  0  0  0  0  0  0  0  0  0
  -22.4528    2.2283   28.3791 O   0  0  0  0  0  0  0  0  0  0  0  0
  -25.5482    3.4030   28.8028 C   0  0  0  0  0  0  0  0  0  0  0  0
  -25.0029    4.0463   29.8429 Cl  0  0  0  0  0  0  0  0  0  0  0  0
  -26.2737    4.1492   27.7189 C   0  0  0  0  0  0  0  0  0  0  0  0
  5  6  1  0
  6 12  1  0
  6 13  2  0
  4 14  1  0
 14 15  1  0
 14 16  1  0
  3  4  1  0
  4  5  2  0
  5  8  1  0
  8  7  2  0
  7  2  1  0
  1  2  2  0
  2  3  1  0
  3 11  2  0
 11 10  1  0
 10  9  2  0
  9  1  1  0
M  END

$$$$
