No_4811-gen_results/8p0m/2024-11-27-11-27-31/
     RDKit          3D

 19 21  0  0  0  0  0  0  0  0999 V2000
  -28.0162   -0.8135   28.8779 C   0  0  0  0  0  0  0  0  0  0  0  0
  -28.4690   -0.7850   29.8287 C   0  0  0  0  0  0  0  0  0  0  0  0
  -27.0871    0.2903   28.6377 C   0  0  0  0  0  0  0  0  0  0  0  0
  -26.0239    0.3644   29.2526 C   0  0  0  0  0  0  0  0  0  0  0  0
  -27.5370   -0.6187   31.0883 C   0  0  0  0  0  0  0  0  0  0  0  0
  -26.3844    0.1834   30.8012 C   0  0  0  0  0  0  0  0  0  0  0  0
  -29.6227   -1.6698   30.2973 C   0  0  0  0  0  0  0  0  0  0  0  0
  -29.5721   -2.7556   30.5828 O   0  0  0  0  0  0  0  0  0  0  0  0
  -30.8059   -1.0509   30.2630 O   0  0  0  0  0  0  0  0  0  0  0  0
  -24.8652    1.3047   29.1014 C   0  0  0  0  0  0  0  0  0  0  0  0
  -23.7887    1.1165   29.4091 C   0  0  0  0  0  0  0  0  0  0  0  0
  -22.5291    1.7938   28.9685 C   0  0  0  0  0  0  0  0  0  0  0  0
  -25.0588    2.4297   28.1662 C   0  0  0  0  0  0  0  0  0  0  0  0
  -26.3085    2.8771   27.7294 C   0  0  0  0  0  0  0  0  0  0  0  0
  -22.6458    2.6046   27.8827 C   0  0  0  0  0  0  0  0  0  0  0  0
  -23.8832    3.0139   27.5565 C   0  0  0  0  0  0  0  0  0  0  0  0
  -27.1342    0.9687   27.2746 C   0  0  0  0  0  0  0  0  0  0  0  0
  -27.0094    2.2149   26.9979 C   0  0  0  0  0  0  0  0  0  0  0  0
  -27.4816    0.1042   26.2496 O   0  0  0  0  0  0  0  0  0  0  0  0
  2  7  1  0
  7  8  2  0
  7  9  1  0
  4 10  1  0
  3 17  1  0
 14 18  1  0
 17 18  1  0
 17 19  2  0
 14 13  1  0
 10 11  2  0
 11 12  1  0
 12 15  2  0
 15 16  1  0
 16 13  2  0
 13 10  1  0
  1  2  2  0
  2  5  1  0
  5  6  2  0
  6  4  1  0
  4  3  2  0
  3  1  1  0
M  END

$$$$
