No_4785-gen_results/8p0m/2024-11-27-11-27-31/
     RDKit          3D

 18 19  0  0  0  0  0  0  0  0999 V2000
  -28.0162   -0.8135   28.8779 C   0  0  0  0  0  0  0  0  0  0  0  0
  -27.0636   -0.1189   28.6079 C   0  0  0  0  0  0  0  0  0  0  0  0
  -25.7923   -0.4302   29.0761 C   0  0  0  0  0  0  0  0  0  0  0  0
  -24.5456    0.3494   28.8225 C   0  0  0  0  0  0  0  0  0  0  0  0
  -23.2409    0.0217   29.3323 C   0  0  0  0  0  0  0  0  0  0  0  0
  -27.8820   -1.8995   29.8633 C   0  0  0  0  0  0  0  0  0  0  0  0
  -29.0229   -2.7036   30.2432 C   0  0  0  0  0  0  0  0  0  0  0  0
  -23.2289   -1.2651   29.9537 C   0  0  0  0  0  0  0  0  0  0  0  0
  -24.3165   -2.0529   30.1494 C   0  0  0  0  0  0  0  0  0  0  0  0
  -25.5445   -1.6909   29.7375 C   0  0  0  0  0  0  0  0  0  0  0  0
  -26.6774   -2.3616   30.2176 C   0  0  0  0  0  0  0  0  0  0  0  0
  -30.0589   -2.3526   29.9534 F   0  0  0  0  0  0  0  0  0  0  0  0
  -28.8185   -4.0369   29.9421 F   0  0  0  0  0  0  0  0  0  0  0  0
  -28.9072   -2.7558   31.6862 F   0  0  0  0  0  0  0  0  0  0  0  0
  -24.6107    1.6150   28.0324 C   0  0  0  0  0  0  0  0  0  0  0  0
  -24.9830    1.5210   26.7262 C   0  0  0  0  0  0  0  0  0  0  0  0
  -24.3045    2.8527   28.6608 C   0  0  0  0  0  0  0  0  0  0  0  0
  -24.1286    2.9401   29.8141 O   0  0  0  0  0  0  0  0  0  0  0  0
  6  7  1  0
  7 12  1  0
  7 13  1  0
  7 14  1  0
  4 15  1  0
 15 16  1  0
 15 17  1  0
 17 18  2  0
  1  2  2  0
  2  3  1  0
 10 11  1  0
 11  6  2  0
  6  1  1  0
  3  4  2  0
  4  5  1  0
  5  8  2  0
  8  9  1  0
  9 10  2  0
 10  3  1  0
M  END

$$$$
