No_4518-gen_results/8p0m/2024-11-27-11-27-31/
     RDKit          3D

 15 16  0  0  0  0  0  0  0  0999 V2000
  -28.1229   -1.3353   28.4874 O   0  0  0  0  0  0  0  0  0  0  0  0
  -28.5208   -0.4363   29.0779 C   0  0  0  0  0  0  0  0  0  0  0  0
  -28.5894    0.5916   28.9464 C   0  0  0  0  0  0  0  0  0  0  0  0
  -29.3752   -0.9434   30.2659 N   0  0  0  0  0  0  0  0  0  0  0  0
  -29.1636    1.6673   29.5072 C   0  0  0  0  0  0  0  0  0  0  0  0
  -27.6492    1.1249   27.7443 C   0  0  0  0  0  0  0  0  0  0  0  0
  -27.9158    2.1950   27.0665 C   0  0  0  0  0  0  0  0  0  0  0  0
  -29.3081    2.9848   28.9148 C   0  0  0  0  0  0  0  0  0  0  0  0
  -28.6164    3.2776   27.7353 C   0  0  0  0  0  0  0  0  0  0  0  0
  -29.4218   -2.3712   30.6564 C   0  0  0  0  0  0  0  0  0  0  0  0
  -30.4257   -3.0734   30.0713 C   0  0  0  0  0  0  0  0  0  0  0  0
  -30.2967   -4.5106   30.3038 C   0  0  0  0  0  0  0  0  0  0  0  0
  -29.1446   -5.0633   30.9202 C   0  0  0  0  0  0  0  0  0  0  0  0
  -28.0902   -4.2913   31.1817 C   0  0  0  0  0  0  0  0  0  0  0  0
  -28.1726   -2.8754   31.0472 C   0  0  0  0  0  0  0  0  0  0  0  0
  1  2  2  0
  2  3  1  0
  2  4  1  0
  4 10  1  0
 10 11  2  0
 11 12  1  0
 12 13  2  0
 13 14  1  0
 14 15  2  0
 15 10  1  0
  3  5  2  0
  5  8  1  0
  8  9  2  0
  9  7  1  0
  7  6  2  0
  6  3  1  0
M  END

$$$$
