No_4536-gen_results/8p0m/2024-11-27-11-27-31/
     RDKit          3D

 22 24  0  0  0  0  0  0  0  0999 V2000
  -28.1493   -0.8198   28.9079 Cl  0  0  0  0  0  0  0  0  0  0  0  0
  -26.9116   -0.0797   28.9452 C   0  0  0  0  0  0  0  0  0  0  0  0
  -25.9665   -0.2123   29.6235 C   0  0  0  0  0  0  0  0  0  0  0  0
  -24.7040    0.5534   29.6218 C   0  0  0  0  0  0  0  0  0  0  0  0
  -24.6011    1.5437   28.6212 C   0  0  0  0  0  0  0  0  0  0  0  0
  -25.6671    1.7162   27.8026 C   0  0  0  0  0  0  0  0  0  0  0  0
  -26.7607    0.9618   27.8836 C   0  0  0  0  0  0  0  0  0  0  0  0
  -23.3668    2.3130   28.5678 C   0  0  0  0  0  0  0  0  0  0  0  0
  -22.2363    1.8978   27.9180 N   0  0  0  0  0  0  0  0  0  0  0  0
  -21.7329    0.9689   27.7511 C   0  0  0  0  0  0  0  0  0  0  0  0
  -22.0176   -0.0859   28.5786 N   0  0  0  0  0  0  0  0  0  0  0  0
  -21.0499   -1.1121   28.7619 C   0  0  0  0  0  0  0  0  0  0  0  0
  -19.9037   -0.8269   28.2718 N   0  0  0  0  0  0  0  0  0  0  0  0
  -20.3376    0.9787   27.4996 N   0  0  0  0  0  0  0  0  0  0  0  0
  -19.5136    0.2208   27.6972 N   0  0  0  0  0  0  0  0  0  0  0  0
  -27.8835    1.1729   26.9072 C   0  0  0  0  0  0  0  0  0  0  0  0
  -27.6477    0.7229   25.6187 C   0  0  0  0  0  0  0  0  0  0  0  0
  -28.7471    0.5716   24.7327 C   0  0  0  0  0  0  0  0  0  0  0  0
  -30.0116    0.9578   25.1193 C   0  0  0  0  0  0  0  0  0  0  0  0
  -30.1855    1.5062   26.3824 C   0  0  0  0  0  0  0  0  0  0  0  0
  -29.1395    1.5629   27.3374 C   0  0  0  0  0  0  0  0  0  0  0  0
  -26.3374    0.1952   25.1543 C   0  0  0  0  0  0  0  0  0  0  0  0
  1  2  1  0
  5  8  1  0
  8  9  1  0
  7 16  1  0
 17 22  1  0
  9 10  1  0
  2  3  2  0
  3  4  1  0
  4  5  2  0
  5  6  1  0
  6  7  2  0
  7  2  1  0
 10 11  2  0
 11 12  1  0
 12 13  2  0
 13 15  1  0
 15 14  2  0
 14 10  1  0
 16 17  2  0
 17 18  1  0
 18 19  2  0
 19 20  1  0
 20 21  2  0
 21 16  1  0
M  END

$$$$
