No_4372-gen_results/8p0m/2024-11-27-11-27-31/
     RDKit          3D

 35 38  0  0  0  0  0  0  0  0999 V2000
  -28.0162   -0.8135   28.8779 C   0  0  0  0  0  0  0  0  0  0  0  0
  -27.0636   -0.1189   28.6079 C   0  0  0  0  0  0  0  0  0  0  0  0
  -27.0010    0.6913   27.4910 C   0  0  0  0  0  0  0  0  0  0  0  0
  -28.1373    0.7363   26.6350 C   0  0  0  0  0  0  0  0  0  0  0  0
  -29.2360    0.0765   27.0690 C   0  0  0  0  0  0  0  0  0  0  0  0
  -29.2177   -0.6429   28.1747 C   0  0  0  0  0  0  0  0  0  0  0  0
  -30.3516    0.1564   26.2430 N   0  0  0  0  0  0  0  0  0  0  0  0
  -30.2688    0.1234   24.9366 C   0  0  0  0  0  0  0  0  0  0  0  0
  -29.6118   -0.5250   24.3822 C   0  0  0  0  0  0  0  0  0  0  0  0
  -31.6880    0.1773   24.3386 C   0  0  0  0  0  0  0  0  0  0  0  0
  -31.6045    0.2495   26.9916 C   0  0  0  0  0  0  0  0  0  0  0  0
  -32.6902    0.5689   26.2687 C   0  0  0  0  0  0  0  0  0  0  0  0
  -32.7852    0.6329   24.9352 C   0  0  0  0  0  0  0  0  0  0  0  0
  -28.0651   -1.6421   30.1762 C   0  0  0  0  0  0  0  0  0  0  0  0
  -28.5892   -1.5746   31.0373 O   0  0  0  0  0  0  0  0  0  0  0  0
  -27.1099   -2.6964   29.9773 O   0  0  0  0  0  0  0  0  0  0  0  0
  -25.8247   -2.4111   29.7462 C   0  0  0  0  0  0  0  0  0  0  0  0
  -25.2576   -3.2178   28.8388 C   0  0  0  0  0  0  0  0  0  0  0  0
  -23.8497   -2.9795   28.5827 C   0  0  0  0  0  0  0  0  0  0  0  0
  -23.1712   -1.8694   29.1547 C   0  0  0  0  0  0  0  0  0  0  0  0
  -23.8777   -1.1068   30.1238 C   0  0  0  0  0  0  0  0  0  0  0  0
  -25.1779   -1.3767   30.4462 C   0  0  0  0  0  0  0  0  0  0  0  0
  -23.1184   -0.0624   30.8401 C   0  0  0  0  0  0  0  0  0  0  0  0
  -23.6326    0.5746   31.7764 O   0  0  0  0  0  0  0  0  0  0  0  0
  -21.9374    0.2379   30.3532 O   0  0  0  0  0  0  0  0  0  0  0  0
  -25.7730    1.4227   27.0159 C   0  0  0  0  0  0  0  0  0  0  0  0
  -25.0637    1.1254   26.0945 C   0  0  0  0  0  0  0  0  0  0  0  0
  -23.7767    1.7599   25.8494 C   0  0  0  0  0  0  0  0  0  0  0  0
  -23.3467    2.6555   26.8440 C   0  0  0  0  0  0  0  0  0  0  0  0
  -25.1667    2.3318   28.0420 C   0  0  0  0  0  0  0  0  0  0  0  0
  -26.0178    2.7011   29.2570 C   0  0  0  0  0  0  0  0  0  0  0  0
  -23.9030    2.9970   27.9324 C   0  0  0  0  0  0  0  0  0  0  0  0
  -27.0039    2.9731   29.2741 O   0  0  0  0  0  0  0  0  0  0  0  0
  -25.1682    3.0176   30.3388 O   0  0  0  0  0  0  0  0  0  0  0  0
  -25.8356    3.2170   31.5405 C   0  0  0  0  0  0  0  0  0  0  0  0
  5  7  1  0
  7  8  1  0
  8  9  1  0
  8 10  1  0
  7 11  1  0
 12 13  1  0
  1 14  1  0
 14 15  2  0
 14 16  1  0
 16 17  1  0
 21 23  1  0
 23 24  2  0
 23 25  1  0
  3 26  1  0
 30 31  1  0
 31 33  2  0
 31 34  1  0
 34 35  1  0
 10 13  1  0
 12 11  1  0
 17 18  2  0
 18 19  1  0
 19 20  2  0
 20 21  1  0
 21 22  2  0
 22 17  1  0
  1  2  2  0
  2  3  1  0
  3  4  2  0
  4  5  1  0
  5  6  2  0
  6  1  1  0
 26 27  2  0
 27 28  1  0
 28 29  2  0
 29 32  1  0
 32 30  2  0
 30 26  1  0
M  END

$$$$
