No_4827-gen_results/8p0m/2024-11-27-11-27-31/
     RDKit          3D

 24 26  0  0  0  0  0  0  0  0999 V2000
  -28.0162   -0.8135   28.8779 C   0  0  0  0  0  0  0  0  0  0  0  0
  -27.0636   -0.1189   28.6079 C   0  0  0  0  0  0  0  0  0  0  0  0
  -27.0010    0.6913   27.4910 C   0  0  0  0  0  0  0  0  0  0  0  0
  -28.1373    0.7363   26.6350 C   0  0  0  0  0  0  0  0  0  0  0  0
  -29.2360    0.0765   27.0690 C   0  0  0  0  0  0  0  0  0  0  0  0
  -29.2177   -0.6429   28.1747 C   0  0  0  0  0  0  0  0  0  0  0  0
  -30.2580    0.2555   26.0835 N   0  0  0  0  0  0  0  0  0  0  0  0
  -30.1356    0.5789   24.8960 C   0  0  0  0  0  0  0  0  0  0  0  0
  -28.9810    1.3825   24.5179 C   0  0  0  0  0  0  0  0  0  0  0  0
  -28.0433    1.5460   25.3788 C   0  0  0  0  0  0  0  0  0  0  0  0
  -28.0235   -1.6596   30.1665 C   0  0  0  0  0  0  0  0  0  0  0  0
  -28.7970   -1.9328   30.8295 N   0  0  0  0  0  0  0  0  0  0  0  0
  -26.7281   -2.2987   30.3846 N   0  0  0  0  0  0  0  0  0  0  0  0
  -30.0459   -1.4009   30.9727 C   0  0  0  0  0  0  0  0  0  0  0  0
  -30.1204   -0.3297   31.8000 C   0  0  0  0  0  0  0  0  0  0  0  0
  -29.1840   -0.1454   32.7756 C   0  0  0  0  0  0  0  0  0  0  0  0
  -29.0339    1.1436   33.3480 C   0  0  0  0  0  0  0  0  0  0  0  0
  -30.0491    2.1010   33.1055 C   0  0  0  0  0  0  0  0  0  0  0  0
  -30.9887    1.9038   32.1631 C   0  0  0  0  0  0  0  0  0  0  0  0
  -30.9886    0.7324   31.4297 C   0  0  0  0  0  0  0  0  0  0  0  0
  -31.0896   -2.4013   31.4674 C   0  0  0  0  0  0  0  0  0  0  0  0
  -32.0013   -2.7942   30.7698 N   0  0  0  0  0  0  0  0  0  0  0  0
  -32.9434   -3.5947   31.1952 C   0  0  0  0  0  0  0  0  0  0  0  0
  -30.7492   -3.1340   32.4518 O   0  0  0  0  0  0  0  0  0  0  0  0
  1 11  1  0
 11 12  1  0
 11 13  2  0
 12 14  1  0
 14 21  1  0
 21 22  1  0
 22 23  1  0
 21 24  2  0
 14 15  1  0
  5  7  1  0
  7  8  2  0
  8  9  1  0
  9 10  2  0
 10  4  1  0
  1  2  2  0
  2  3  1  0
  3  4  2  0
  4  5  1  0
  5  6  2  0
  6  1  1  0
 15 16  2  0
 16 17  1  0
 17 18  2  0
 18 19  1  0
 19 20  2  0
 20 15  1  0
M  END

$$$$
