No_4116-gen_results/8p0m/2024-11-27-11-27-31/
     RDKit          3D

 27 30  0  0  0  0  0  0  0  0999 V2000
  -28.0162   -0.8135   28.8779 C   0  0  0  0  0  0  0  0  0  0  0  0
  -28.4690   -0.7850   29.8287 C   0  0  0  0  0  0  0  0  0  0  0  0
  -28.1816    0.4277   28.1134 C   0  0  0  0  0  0  0  0  0  0  0  0
  -27.4498    0.6435   26.8500 C   0  0  0  0  0  0  0  0  0  0  0  0
  -27.8596    1.4573   25.9076 C   0  0  0  0  0  0  0  0  0  0  0  0
  -29.4263    0.1097   30.4178 C   0  0  0  0  0  0  0  0  0  0  0  0
  -29.6233    1.2198   29.7351 C   0  0  0  0  0  0  0  0  0  0  0  0
  -28.9609    1.4529   28.5513 C   0  0  0  0  0  0  0  0  0  0  0  0
  -28.7886    2.5164   26.2663 C   0  0  0  0  0  0  0  0  0  0  0  0
  -29.2995    2.4792   27.5997 C   0  0  0  0  0  0  0  0  0  0  0  0
  -26.4407   -0.3352   26.3468 C   0  0  0  0  0  0  0  0  0  0  0  0
  -25.0828    0.2610   26.6296 C   0  0  0  0  0  0  0  0  0  0  0  0
  -24.3430    0.0851   27.8359 C   0  0  0  0  0  0  0  0  0  0  0  0
  -23.1361    0.7090   27.9633 C   0  0  0  0  0  0  0  0  0  0  0  0
  -22.2851    0.3816   29.0630 C   0  0  0  0  0  0  0  0  0  0  0  0
  -22.7121   -0.5490   30.0048 C   0  0  0  0  0  0  0  0  0  0  0  0
  -23.9999   -1.0392   29.9714 C   0  0  0  0  0  0  0  0  0  0  0  0
  -24.7715   -0.8304   28.8005 C   0  0  0  0  0  0  0  0  0  0  0  0
  -28.2561   -2.0893   30.7872 C   0  0  0  0  0  0  0  0  0  0  0  0
  -28.9596   -3.1301   30.6260 N   0  0  0  0  0  0  0  0  0  0  0  0
  -28.4060   -4.2926   30.3834 C   0  0  0  0  0  0  0  0  0  0  0  0
  -30.3446   -3.1389   30.5061 C   0  0  0  0  0  0  0  0  0  0  0  0
  -30.9439   -4.2830   30.1551 C   0  0  0  0  0  0  0  0  0  0  0  0
  -32.2468   -4.3769   29.9121 C   0  0  0  0  0  0  0  0  0  0  0  0
  -30.1328   -5.4719   29.9063 C   0  0  0  0  0  0  0  0  0  0  0  0
  -28.9193   -5.4319   30.1100 N   0  0  0  0  0  0  0  0  0  0  0  0
  -32.9581   -3.3680   30.1649 O   0  0  0  0  0  0  0  0  0  0  0  0
  4 11  1  0
 11 12  1  0
  2 19  1  0
 19 20  1  0
 20 21  1  0
 20 22  1  0
 22 23  1  0
 23 25  1  0
 21 26  1  0
 24 27  2  0
 12 13  1  0
 24 23  1  0
 26 25  1  0
 13 14  2  0
 14 15  1  0
 15 16  2  0
 16 17  1  0
 17 18  2  0
 18 13  1  0
  3  4  2  0
  4  5  1  0
  5  9  2  0
  9 10  1  0
 10  8  2  0
  1  2  2  0
  2  6  1  0
  6  7  2  0
  7  8  1  0
  8  3  1  0
  3  1  1  0
M  END

$$$$
