No_4449-gen_results/8p0m/2024-11-27-11-27-31/
     RDKit          3D

 29 31  0  0  0  0  0  0  0  0999 V2000
  -28.0162   -0.8135   28.8779 C   0  0  0  0  0  0  0  0  0  0  0  0
  -27.0636   -0.1189   28.6079 C   0  0  0  0  0  0  0  0  0  0  0  0
  -26.9287    1.1713   29.0083 C   0  0  0  0  0  0  0  0  0  0  0  0
  -25.7702    2.0341   28.6884 C   0  0  0  0  0  0  0  0  0  0  0  0
  -25.6189    3.3482   29.0918 C   0  0  0  0  0  0  0  0  0  0  0  0
  -29.0712   -0.3338   29.7689 C   0  0  0  0  0  0  0  0  0  0  0  0
  -29.0128    0.9333   30.1718 C   0  0  0  0  0  0  0  0  0  0  0  0
  -27.8993    1.7759   29.8587 C   0  0  0  0  0  0  0  0  0  0  0  0
  -24.7637    1.5278   27.7799 C   0  0  0  0  0  0  0  0  0  0  0  0
  -23.6558    2.3377   27.4155 C   0  0  0  0  0  0  0  0  0  0  0  0
  -24.6190    4.2235   28.5228 C   0  0  0  0  0  0  0  0  0  0  0  0
  -23.6237    3.6589   27.7229 C   0  0  0  0  0  0  0  0  0  0  0  0
  -30.1497   -1.2693   30.0881 C   0  0  0  0  0  0  0  0  0  0  0  0
  -30.7193   -1.1285   31.2211 N   0  0  0  0  0  0  0  0  0  0  0  0
  -30.4358   -2.1957   29.3563 O   0  0  0  0  0  0  0  0  0  0  0  0
  -31.8045   -2.0354   31.6766 C   0  0  0  0  0  0  0  0  0  0  0  0
  -32.1822   -2.0209   32.7228 C   0  0  0  0  0  0  0  0  0  0  0  0
  -31.7908   -1.0707   33.6454 C   0  0  0  0  0  0  0  0  0  0  0  0
  -32.2346   -0.9771   35.0452 C   0  0  0  0  0  0  0  0  0  0  0  0
  -33.1175   -1.9528   35.4200 C   0  0  0  0  0  0  0  0  0  0  0  0
  -33.5576   -2.9241   34.6110 C   0  0  0  0  0  0  0  0  0  0  0  0
  -33.0833   -2.9590   33.2884 C   0  0  0  0  0  0  0  0  0  0  0  0
  -33.6233   -1.9077   36.8512 C   0  0  0  0  0  0  0  0  0  0  0  0
  -33.1196   -1.1053   37.6428 N   0  0  0  0  0  0  0  0  0  0  0  0
  -34.3112   -2.8402   37.1822 O   0  0  0  0  0  0  0  0  0  0  0  0
  -33.5428   -1.0204   39.0271 C   0  0  0  0  0  0  0  0  0  0  0  0
  -34.2850   -1.4702   39.6555 C   0  0  0  0  0  0  0  0  0  0  0  0
  -35.2515   -2.3848   39.0877 C   0  0  0  0  0  0  0  0  0  0  0  0
  -35.1321   -3.1547   38.0535 C   0  0  0  0  0  0  0  0  0  0  0  0
  3  4  1  0
  6 13  1  0
 13 14  1  0
 13 15  2  0
 14 16  1  0
 16 17  1  0
 20 23  1  0
 23 24  1  0
 23 25  2  0
 24 26  1  0
 26 27  2  3
 27 28  1  0
 28 29  1  0
 17 18  2  0
 18 19  1  0
 19 20  2  0
 20 21  1  0
 21 22  2  0
 22 17  1  0
  1  2  2  0
  2  3  1  0
  3  8  2  0
  8  7  1  0
  7  6  2  0
  6  1  1  0
  4  5  2  0
  5 11  1  0
 11 12  2  0
 12 10  1  0
 10  9  2  0
  9  4  1  0
M  END

$$$$
