No_4732-gen_results/8p0m/2024-11-27-11-27-31/
     RDKit          3D

 28 31  0  0  0  0  0  0  0  0999 V2000
  -28.0162   -0.8135   28.8779 C   0  0  0  0  0  0  0  0  0  0  0  0
  -27.0636   -0.1190   28.6079 C   0  0  0  0  0  0  0  0  0  0  0  0
  -25.7647   -0.3897   29.0360 C   0  0  0  0  0  0  0  0  0  0  0  0
  -25.5296   -1.5303   29.9014 C   0  0  0  0  0  0  0  0  0  0  0  0
  -26.6888   -2.2893   30.1810 C   0  0  0  0  0  0  0  0  0  0  0  0
  -27.8727   -1.9508   29.7373 C   0  0  0  0  0  0  0  0  0  0  0  0
  -24.5491    0.4100   28.7341 C   0  0  0  0  0  0  0  0  0  0  0  0
  -24.4789    1.1871   27.6843 C   0  0  0  0  0  0  0  0  0  0  0  0
  -23.2716    1.8973   27.3731 C   0  0  0  0  0  0  0  0  0  0  0  0
  -22.1063    1.7032   28.0412 C   0  0  0  0  0  0  0  0  0  0  0  0
  -23.3188    0.1792   29.4669 C   0  0  0  0  0  0  0  0  0  0  0  0
  -22.1165    0.8402   29.1011 C   0  0  0  0  0  0  0  0  0  0  0  0
  -29.2295   -2.8994   30.2078 Cl  0  0  0  0  0  0  0  0  0  0  0  0
  -23.3244    2.7691   26.3084 O   0  0  0  0  0  0  0  0  0  0  0  0
  -24.4469    2.5502   25.5434 C   0  0  0  0  0  0  0  0  0  0  0  0
  -25.1254    1.5352   26.4513 C   0  0  0  0  0  0  0  0  0  0  0  0
  -29.2958   -0.5537   28.4805 O   0  0  0  0  0  0  0  0  0  0  0  0
  -29.4761    0.4351   27.5385 C   0  0  0  0  0  0  0  0  0  0  0  0
  -29.8684    1.6008   28.1251 C   0  0  0  0  0  0  0  0  0  0  0  0
  -30.5733    2.3122   27.7544 C   0  0  0  0  0  0  0  0  0  0  0  0
  -29.5172    0.2025   26.2156 C   0  0  0  0  0  0  0  0  0  0  0  0
  -30.1341    1.1598   25.4245 C   0  0  0  0  0  0  0  0  0  0  0  0
  -30.7110    2.3225   26.1221 C   0  0  0  0  0  0  0  0  0  0  0  0
  -26.4408    0.9748   26.0423 C   0  0  0  0  0  0  0  0  0  0  0  0
  -26.3092    0.2307   24.7816 C   0  0  0  0  0  0  0  0  0  0  0  0
  -31.3959    3.3554   25.3490 C   0  0  0  0  0  0  0  0  0  0  0  0
  -31.1879    4.5296   25.5780 N   0  0  0  0  0  0  0  0  0  0  0  0
  -32.4014    3.0023   24.7260 O   0  0  0  0  0  0  0  0  0  0  0  0
  3  7  1  0
  6 13  1  0
  9 14  1  0
 14 15  1  0
  8 16  1  0
 15 16  1  0
  1 17  1  0
 17 18  1  0
 16 24  1  0
 24 25  1  0
 23 26  1  0
 26 27  1  0
 26 28  2  0
  7  8  2  0
  8  9  1  0
  9 10  2  0
 10 12  1  0
 12 11  2  0
 11  7  1  0
  1  2  2  0
  2  3  1  0
  3  4  2  0
  4  5  1  0
  5  6  2  0
  6  1  1  0
 18 19  2  0
 19 20  1  0
 20 23  2  0
 23 22  1  0
 22 21  2  0
 21 18  1  0
M  END

$$$$
