No_4257-gen_results/8p0m/2024-11-27-11-27-31/
     RDKit          3D

 11 11  0  0  0  0  0  0  0  0999 V2000
  -28.0162   -0.8135   28.8779 C   0  0  0  0  0  0  0  0  0  0  0  0
  -27.0636   -0.1189   28.6079 C   0  0  0  0  0  0  0  0  0  0  0  0
  -26.9716    0.7139   27.5060 C   0  0  0  0  0  0  0  0  0  0  0  0
  -28.1053    0.7744   26.6421 C   0  0  0  0  0  0  0  0  0  0  0  0
  -29.2041    0.1179   27.0477 C   0  0  0  0  0  0  0  0  0  0  0  0
  -29.2528   -0.3099   28.1229 C   0  0  0  0  0  0  0  0  0  0  0  0
  -25.4819    1.4697   27.0159 Cl  0  0  0  0  0  0  0  0  0  0  0  0
  -30.4884    0.2788   26.3205 C   0  0  0  0  0  0  0  0  0  0  0  0
  -30.4811    0.1418   25.0893 F   0  0  0  0  0  0  0  0  0  0  0  0
  -31.0613    1.4750   26.5324 F   0  0  0  0  0  0  0  0  0  0  0  0
  -31.3083   -0.7354   26.6954 F   0  0  0  0  0  0  0  0  0  0  0  0
  3  7  1  0
  5  8  1  0
  8  9  1  0
  8 10  1  0
  8 11  1  0
  1  2  2  0
  2  3  1  0
  3  4  2  0
  4  5  1  0
  5  6  2  0
  6  1  1  0
M  END

$$$$
