No_4796-gen_results/8p0m/2024-11-27-11-27-31/
     RDKit          3D

 33 35  0  0  0  0  0  0  0  0999 V2000
  -28.0162   -0.8135   28.8779 C   0  0  0  0  0  0  0  0  0  0  0  0
  -27.0636   -0.1190   28.6079 C   0  0  0  0  0  0  0  0  0  0  0  0
  -26.9287    1.1713   29.0083 C   0  0  0  0  0  0  0  0  0  0  0  0
  -25.7702    2.0341   28.6884 C   0  0  0  0  0  0  0  0  0  0  0  0
  -24.7141    1.4431   27.9188 C   0  0  0  0  0  0  0  0  0  0  0  0
  -24.8590    0.0783   27.5836 C   0  0  0  0  0  0  0  0  0  0  0  0
  -25.9647   -0.6606   27.9164 C   0  0  0  0  0  0  0  0  0  0  0  0
  -27.9821   -1.6367   30.0748 N   0  0  0  0  0  0  0  0  0  0  0  0
  -29.2163   -0.4132   28.6627 O   0  0  0  0  0  0  0  0  0  0  0  0
  -26.7315   -2.0678   30.6432 C   0  0  0  0  0  0  0  0  0  0  0  0
  -29.1005   -2.4113   30.5218 C   0  0  0  0  0  0  0  0  0  0  0  0
  -23.5128    2.1515   27.5474 C   0  0  0  0  0  0  0  0  0  0  0  0
  -22.4892    1.8528   27.3586 O   0  0  0  0  0  0  0  0  0  0  0  0
  -23.8426    3.4887   27.2670 O   0  0  0  0  0  0  0  0  0  0  0  0
  -29.5916   -2.1693   31.7078 C   0  0  0  0  0  0  0  0  0  0  0  0
  -30.2163   -3.1392   32.1862 F   0  0  0  0  0  0  0  0  0  0  0  0
  -28.5672   -1.9429   32.6240 F   0  0  0  0  0  0  0  0  0  0  0  0
  -30.3622   -1.0845   31.6762 F   0  0  0  0  0  0  0  0  0  0  0  0
  -28.7441   -3.6826   30.2290 O   0  0  0  0  0  0  0  0  0  0  0  0
  -25.9512   -2.9459   29.8920 C   0  0  0  0  0  0  0  0  0  0  0  0
  -26.2987   -4.2880   29.7085 C   0  0  0  0  0  0  0  0  0  0  0  0
  -25.2246   -4.9103   28.8579 C   0  0  0  0  0  0  0  0  0  0  0  0
  -24.1131   -4.2577   28.5255 C   0  0  0  0  0  0  0  0  0  0  0  0
  -23.8292   -2.9588   28.7588 C   0  0  0  0  0  0  0  0  0  0  0  0
  -24.6934   -2.3128   29.5850 C   0  0  0  0  0  0  0  0  0  0  0  0
  -29.7954   -4.5584   29.7884 C   0  0  0  0  0  0  0  0  0  0  0  0
  -31.0343   -4.2306   30.2819 C   0  0  0  0  0  0  0  0  0  0  0  0
  -32.0201   -4.9207   29.7096 O   0  0  0  0  0  0  0  0  0  0  0  0
  -33.2754   -4.5915   29.8911 C   0  0  0  0  0  0  0  0  0  0  0  0
  -33.4571   -3.5318   30.4575 C   0  0  0  0  0  0  0  0  0  0  0  0
  -32.4994   -2.6544   30.9957 C   0  0  0  0  0  0  0  0  0  0  0  0
  -31.3343   -3.0352   30.8744 C   0  0  0  0  0  0  0  0  0  0  0  0
  -31.3145   -2.2399   29.8785 F   0  0  0  0  0  0  0  0  0  0  0  0
  1  2  1  0
  1  8  1  0
  1  9  2  0
  8 10  1  0
  8 11  1  0
  5 12  1  0
 12 13  2  0
 12 14  1  0
 11 15  1  0
 15 16  1  0
 15 17  1  0
 15 18  1  0
 11 19  1  0
 10 20  1  0
 19 26  1  0
 26 27  2  3
 27 28  1  0
 28 29  1  0
 29 30  2  0
 30 31  1  0
 27 32  1  0
 31 32  2  0
 32 33  1  0
  2  3  2  0
  3  4  1  0
  4  5  2  0
  5  6  1  0
  6  7  2  0
  7  2  1  0
 20 21  2  0
 21 22  1  0
 22 23  2  0
 23 24  1  0
 24 25  2  0
 25 20  1  0
M  END

$$$$
