No_4762-gen_results/8p0m/2024-11-27-11-27-31/
     RDKit          3D

 10  9  0  0  0  0  0  0  0  0999 V2000
  -28.0162   -0.8135   28.8779 C   0  0  0  0  0  0  0  0  0  0  0  0
  -27.0636   -0.1190   28.6079 C   0  0  0  0  0  0  0  0  0  0  0  0
  -27.0425    0.2440   27.4277 F   0  0  0  0  0  0  0  0  0  0  0  0
  -27.6481   -1.9251   29.5748 F   0  0  0  0  0  0  0  0  0  0  0  0
  -29.0435   -0.1276   29.7843 C   0  0  0  0  0  0  0  0  0  0  0  0
  -29.0528    1.3104   29.7311 Cl  0  0  0  0  0  0  0  0  0  0  0  0
  -28.8450   -0.5189   31.0959 F   0  0  0  0  0  0  0  0  0  0  0  0
  -30.2879   -0.7075   29.4587 F   0  0  0  0  0  0  0  0  0  0  0  0
  -26.7537    0.9764   29.3187 F   0  0  0  0  0  0  0  0  0  0  0  0
  -25.7392   -0.6591   28.6412 F   0  0  0  0  0  0  0  0  0  0  0  0
  1  2  1  0
  2  3  1  0
  1  4  1  0
  1  5  1  0
  5  6  1  0
  5  7  1  0
  5  8  1  0
  2  9  1  0
  2 10  1  0
M  END

$$$$
