No_4529-gen_results/8p0m/2024-11-27-11-27-31/
     RDKit          3D

 17 18  0  0  0  0  0  0  0  0999 V2000
  -28.0162   -0.8135   28.8779 C   0  0  0  0  0  0  0  0  0  0  0  0
  -27.0636   -0.1189   28.6079 C   0  0  0  0  0  0  0  0  0  0  0  0
  -25.7923   -0.4302   29.0761 C   0  0  0  0  0  0  0  0  0  0  0  0
  -24.6321    0.3096   28.7290 C   0  0  0  0  0  0  0  0  0  0  0  0
  -27.8949   -1.8615   29.8946 C   0  0  0  0  0  0  0  0  0  0  0  0
  -29.0727   -2.6684   30.2454 C   0  0  0  0  0  0  0  0  0  0  0  0
  -23.2736    0.0289   29.2458 C   0  0  0  0  0  0  0  0  0  0  0  0
  -23.2359   -1.2260   29.9015 C   0  0  0  0  0  0  0  0  0  0  0  0
  -24.2880   -1.9951   30.1648 C   0  0  0  0  0  0  0  0  0  0  0  0
  -25.5590   -1.6543   29.7682 C   0  0  0  0  0  0  0  0  0  0  0  0
  -26.7081   -2.3659   30.2347 C   0  0  0  0  0  0  0  0  0  0  0  0
  -29.3985   -2.6704   31.5358 O   0  0  0  0  0  0  0  0  0  0  0  0
  -21.9579    0.9146   28.8047 Cl  0  0  0  0  0  0  0  0  0  0  0  0
  -27.2141    1.2476   27.4475 P   0  0  0  0  0  0  0  0  0  0  0  0
  -28.2889    1.2927   26.9479 O   0  0  0  0  0  0  0  0  0  0  0  0
  -26.9353    2.4425   28.4148 O   0  0  0  0  0  0  0  0  0  0  0  0
  -25.9957    1.1991   26.5711 O   0  0  0  0  0  0  0  0  0  0  0  0
  1  2  1  0
  2  3  1  0
  1  5  1  0
  5  6  2  3
  5 11  1  0
 10 11  1  0
  6 12  1  0
  7 13  1  0
  2 14  1  0
 14 15  2  0
 14 16  1  0
 14 17  1  0
  3  4  2  0
  4  7  1  0
  7  8  2  0
  8  9  1  0
  9 10  2  0
 10  3  1  0
M  END

$$$$
