No_499-gen_results/8p0m/2024-11-27-11-27-31/
     RDKit          3D

 35 39  0  0  0  0  0  0  0  0999 V2000
  -28.0162   -0.8135   28.8779 C   0  0  0  0  0  0  0  0  0  0  0  0
  -27.0636   -0.1189   28.6079 C   0  0  0  0  0  0  0  0  0  0  0  0
  -25.7647   -0.3897   29.0360 C   0  0  0  0  0  0  0  0  0  0  0  0
  -25.5296   -1.5302   29.9014 C   0  0  0  0  0  0  0  0  0  0  0  0
  -26.6888   -2.2893   30.1810 C   0  0  0  0  0  0  0  0  0  0  0  0
  -27.8727   -1.9508   29.7373 C   0  0  0  0  0  0  0  0  0  0  0  0
  -24.5491    0.4100   28.7341 C   0  0  0  0  0  0  0  0  0  0  0  0
  -24.4789    1.1871   27.6843 C   0  0  0  0  0  0  0  0  0  0  0  0
  -23.2830    1.8356   27.3522 C   0  0  0  0  0  0  0  0  0  0  0  0
  -22.1028    1.6619   28.0350 C   0  0  0  0  0  0  0  0  0  0  0  0
  -23.3238    0.1535   29.4730 C   0  0  0  0  0  0  0  0  0  0  0  0
  -22.1169    0.8126   29.1066 C   0  0  0  0  0  0  0  0  0  0  0  0
  -28.9595   -2.7141   30.1005 O   0  0  0  0  0  0  0  0  0  0  0  0
  -30.0692   -2.1499   30.5908 C   0  0  0  0  0  0  0  0  0  0  0  0
  -30.1577   -1.1451   31.0779 C   0  0  0  0  0  0  0  0  0  0  0  0
  -30.7989   -0.4187   31.6490 C   0  0  0  0  0  0  0  0  0  0  0  0
  -30.6449    0.9653   32.2098 C   0  0  0  0  0  0  0  0  0  0  0  0
  -29.4328    1.5700   31.8961 C   0  0  0  0  0  0  0  0  0  0  0  0
  -28.4853    0.8595   31.2364 C   0  0  0  0  0  0  0  0  0  0  0  0
  -28.7244   -0.4079   30.8351 C   0  0  0  0  0  0  0  0  0  0  0  0
  -27.8528   -0.9456   31.3497 F   0  0  0  0  0  0  0  0  0  0  0  0
  -31.2914   -3.0282   30.3989 C   0  0  0  0  0  0  0  0  0  0  0  0
  -32.2344   -2.6112   29.7844 O   0  0  0  0  0  0  0  0  0  0  0  0
  -31.2607   -4.2892   30.9005 N   0  0  0  0  0  0  0  0  0  0  0  0
  -32.3316   -5.2185   30.7005 C   0  0  0  0  0  0  0  0  0  0  0  0
  -32.8887   -5.5277   31.7781 C   0  0  0  0  0  0  0  0  0  0  0  0
  -33.3536   -4.5649   32.5878 C   0  0  0  0  0  0  0  0  0  0  0  0
  -33.2662   -3.2807   32.2453 C   0  0  0  0  0  0  0  0  0  0  0  0
  -33.3679   -2.2825   33.3636 C   0  0  0  0  0  0  0  0  0  0  0  0
  -33.6650   -2.7193   34.6135 C   0  0  0  0  0  0  0  0  0  0  0  0
  -33.8267   -4.0445   34.9174 C   0  0  0  0  0  0  0  0  0  0  0  0
  -33.5737   -4.9260   33.9709 C   0  0  0  0  0  0  0  0  0  0  0  0
  -33.6329   -6.2547   34.2168 N   0  0  0  0  0  0  0  0  0  0  0  0
  -33.3655   -7.1903   33.3660 C   0  0  0  0  0  0  0  0  0  0  0  0
  -32.8964   -6.8919   32.1669 C   0  0  0  0  0  0  0  0  0  0  0  0
  3  7  1  0
  6 13  1  0
 13 14  1  0
 20 21  1  0
 14 22  1  0
 22 23  2  0
 22 24  1  0
 24 25  1  0
 25 26  1  0
 14 15  1  0
 15 16  2  0
 16 17  1  0
 17 18  2  0
 18 19  1  0
 19 20  2  0
 20 15  1  0
  1  2  2  0
  2  3  1  0
  3  4  2  0
  4  5  1  0
  5  6  2  0
  6  1  1  0
 27 28  2  0
 28 29  1  0
 29 30  2  0
 30 31  1  0
 31 32  2  0
  7  8  2  0
  8  9  1  0
  9 10  2  0
 10 12  1  0
 12 11  2  0
 11  7  1  0
 26 27  1  0
 27 32  1  0
 32 33  1  0
 33 34  2  0
 34 35  1  0
 35 26  2  0
M  END

$$$$
