No_479-gen_results/8p0m/2024-11-27-11-27-31/
     RDKit          3D

 18 19  0  0  0  0  0  0  0  0999 V2000
  -28.0162   -0.8135   28.8779 C   0  0  0  0  0  0  0  0  0  0  0  0
  -27.0636   -0.1189   28.6079 C   0  0  0  0  0  0  0  0  0  0  0  0
  -27.0010    0.6913   27.4910 C   0  0  0  0  0  0  0  0  0  0  0  0
  -25.8548    1.4825   27.0830 C   0  0  0  0  0  0  0  0  0  0  0  0
  -24.9008    1.3894   27.5922 C   0  0  0  0  0  0  0  0  0  0  0  0
  -24.6783    0.5764   28.8299 C   0  0  0  0  0  0  0  0  0  0  0  0
  -25.7704   -0.2051   29.2800 C   0  0  0  0  0  0  0  0  0  0  0  0
  -29.2290   -0.2043   29.0851 N   0  0  0  0  0  0  0  0  0  0  0  0
  -29.6228    0.2178   30.2629 C   0  0  0  0  0  0  0  0  0  0  0  0
  -30.8751    0.8760   30.2981 C   0  0  0  0  0  0  0  0  0  0  0  0
  -30.0547   -0.1414   27.9625 C   0  0  0  0  0  0  0  0  0  0  0  0
  -29.7327   -0.5531   26.8933 O   0  0  0  0  0  0  0  0  0  0  0  0
  -31.2023    0.5366   27.9756 N   0  0  0  0  0  0  0  0  0  0  0  0
  -31.6586    1.0296   29.2156 C   0  0  0  0  0  0  0  0  0  0  0  0
  -23.5808    2.1380   27.2521 C   0  0  0  0  0  0  0  0  0  0  0  0
  -23.3576    2.3812   26.0312 O   0  0  0  0  0  0  0  0  0  0  0  0
  -22.6208    2.3958   28.1309 O   0  0  0  0  0  0  0  0  0  0  0  0
  -32.6740    1.7800   29.0838 F   0  0  0  0  0  0  0  0  0  0  0  0
  1  2  1  0
  1  8  1  0
  8  9  1  0
  8 11  1  0
 11 12  2  0
 11 13  1  0
 10 14  1  0
  5 15  1  0
 15 16  2  0
 15 17  1  0
 14 18  1  0
  9 10  1  0
 14 13  1  0
  2  3  2  0
  3  4  1  0
  4  5  2  0
  5  6  1  0
  6  7  2  0
  7  2  1  0
M  END

$$$$
