No_4225-gen_results/8p0m/2024-11-27-11-27-31/
     RDKit          3D

 15 16  0  0  0  0  0  0  0  0999 V2000
  -28.0162   -0.8135   28.8779 C   0  0  0  0  0  0  0  0  0  0  0  0
  -28.4690   -0.7850   29.8287 C   0  0  0  0  0  0  0  0  0  0  0  0
  -26.5455   -0.8762   28.8500 C   0  0  0  0  0  0  0  0  0  0  0  0
  -25.8041   -1.0324   30.0571 C   0  0  0  0  0  0  0  0  0  0  0  0
  -27.9437   -0.9869   31.2075 C   0  0  0  0  0  0  0  0  0  0  0  0
  -26.5825   -1.0386   31.2231 C   0  0  0  0  0  0  0  0  0  0  0  0
  -30.0606   -0.7371   29.9024 C   0  0  0  0  0  0  0  0  0  0  0  0
  -30.5524   -0.2769   29.0111 O   0  0  0  0  0  0  0  0  0  0  0  0
  -30.6781   -0.7389   31.0590 F   0  0  0  0  0  0  0  0  0  0  0  0
  -24.3726   -1.0993   30.0699 C   0  0  0  0  0  0  0  0  0  0  0  0
  -23.6845   -1.6868   30.5083 C   0  0  0  0  0  0  0  0  0  0  0  0
  -23.7582    0.0003   29.1472 C   0  0  0  0  0  0  0  0  0  0  0  0
  -22.3335    0.0477   29.0716 C   0  0  0  0  0  0  0  0  0  0  0  0
  -22.2389   -1.7419   30.6026 C   0  0  0  0  0  0  0  0  0  0  0  0
  -21.6243   -0.8147   29.7675 C   0  0  0  0  0  0  0  0  0  0  0  0
  2  7  1  0
  7  8  2  0
  7  9  1  0
  4 10  1  0
 10 11  2  0
 11 14  1  0
 14 15  2  0
 15 13  1  0
 13 12  2  0
 12 10  1  0
  1  2  2  0
  2  5  1  0
  5  6  2  0
  6  4  1  0
  4  3  2  0
  3  1  1  0
M  END

$$$$
