No_4111-gen_results/8p0m/2024-11-27-11-27-31/
     RDKit          3D

  4  3  0  0  0  0  0  0  0  0999 V2000
  -28.1229   -1.3353   28.4874 O   0  0  0  0  0  0  0  0  0  0  0  0
  -28.5208   -0.4363   29.0779 C   0  0  0  0  0  0  0  0  0  0  0  0
  -27.9730   -0.0163   30.0866 F   0  0  0  0  0  0  0  0  0  0  0  0
  -29.1119    0.4106   28.4484 F   0  0  0  0  0  0  0  0  0  0  0  0
  1  2  2  0
  2  3  1  0
  2  4  1  0
M  END

$$$$
