No_4547-gen_results/8p0m/2024-11-27-11-27-31/
     RDKit          3D

 15 15  0  0  0  0  0  0  0  0999 V2000
  -28.0162   -0.8135   28.8779 C   0  0  0  0  0  0  0  0  0  0  0  0
  -27.0636   -0.1189   28.6079 C   0  0  0  0  0  0  0  0  0  0  0  0
  -26.8756    1.1325   28.9134 C   0  0  0  0  0  0  0  0  0  0  0  0
  -25.6883    1.9515   28.5672 C   0  0  0  0  0  0  0  0  0  0  0  0
  -24.6394    1.2834   27.8753 C   0  0  0  0  0  0  0  0  0  0  0  0
  -24.8068   -0.0513   27.6040 C   0  0  0  0  0  0  0  0  0  0  0  0
  -25.9019   -0.7670   27.9511 C   0  0  0  0  0  0  0  0  0  0  0  0
  -29.2125   -0.1153   29.1222 C   0  0  0  0  0  0  0  0  0  0  0  0
  -30.3508   -0.8179   29.5782 C   0  0  0  0  0  0  0  0  0  0  0  0
  -23.4273    1.9807   27.5087 C   0  0  0  0  0  0  0  0  0  0  0  0
  -22.2697    2.2044   28.1026 N   0  0  0  0  0  0  0  0  0  0  0  0
  -23.4523    2.4951   26.0877 C   0  0  0  0  0  0  0  0  0  0  0  0
  -31.6040   -0.3556   29.3145 C   0  0  0  0  0  0  0  0  0  0  0  0
  -31.7660    0.9436   28.8611 C   0  0  0  0  0  0  0  0  0  0  0  0
  -30.6685    1.6553   28.4499 C   0  0  0  0  0  0  0  0  0  0  0  0
  1  8  1  0
  8  9  2  3
  5 10  1  0
 10 11  1  0
 10 12  1  0
  9 13  1  0
 13 14  2  3
 14 15  1  0
  1  2  1  0
  2  3  2  0
  3  4  1  0
  4  5  2  0
  5  6  1  0
  6  7  2  0
  7  2  1  0
M  END

$$$$
