No_4586-gen_results/8p0m/2024-11-27-11-27-31/
     RDKit          3D

 21 23  0  0  0  0  0  0  0  0999 V2000
  -28.0162   -0.8135   28.8779 C   0  0  0  0  0  0  0  0  0  0  0  0
  -27.0636   -0.1190   28.6079 C   0  0  0  0  0  0  0  0  0  0  0  0
  -25.7923   -0.4302   29.0761 C   0  0  0  0  0  0  0  0  0  0  0  0
  -24.5456    0.3494   28.8225 C   0  0  0  0  0  0  0  0  0  0  0  0
  -24.6586    1.4196   27.8878 C   0  0  0  0  0  0  0  0  0  0  0  0
  -23.5403    2.1791   27.5500 C   0  0  0  0  0  0  0  0  0  0  0  0
  -22.2925    1.7428   28.0473 C   0  0  0  0  0  0  0  0  0  0  0  0
  -22.1712    0.7079   28.9284 C   0  0  0  0  0  0  0  0  0  0  0  0
  -23.3345   -0.0624   29.3081 C   0  0  0  0  0  0  0  0  0  0  0  0
  -27.9466   -1.8823   29.8708 C   0  0  0  0  0  0  0  0  0  0  0  0
  -26.7159   -2.3287   30.3060 C   0  0  0  0  0  0  0  0  0  0  0  0
  -25.5921   -1.5643   29.9672 C   0  0  0  0  0  0  0  0  0  0  0  0
  -29.1228   -2.6879   30.2451 C   0  0  0  0  0  0  0  0  0  0  0  0
  -30.3049   -2.1079   30.2840 N   0  0  0  0  0  0  0  0  0  0  0  0
  -29.0105   -3.8707   30.6493 O   0  0  0  0  0  0  0  0  0  0  0  0
  -31.5065   -2.8345   30.6450 C   0  0  0  0  0  0  0  0  0  0  0  0
  -32.5156   -2.2659   30.7654 C   0  0  0  0  0  0  0  0  0  0  0  0
  -33.7269   -2.9114   31.1277 C   0  0  0  0  0  0  0  0  0  0  0  0
  -33.6610   -4.3130   31.3195 C   0  0  0  0  0  0  0  0  0  0  0  0
  -32.4559   -4.9586   31.1511 C   0  0  0  0  0  0  0  0  0  0  0  0
  -31.3286   -4.2685   30.8460 C   0  0  0  0  0  0  0  0  0  0  0  0
  3  4  1  0
 10 13  1  0
 13 14  1  0
 13 15  2  0
 14 16  1  0
 16 17  2  0
 17 18  1  0
 18 19  2  0
 19 20  1  0
 20 21  2  0
 21 16  1  0
  1  2  2  0
  2  3  1  0
  3 12  2  0
 12 11  1  0
 11 10  2  0
 10  1  1  0
  4  5  2  0
  5  6  1  0
  6  7  2  0
  7  8  1  0
  8  9  2  0
  9  4  1  0
M  END

$$$$
