No_4135-gen_results/8p0m/2024-11-27-11-27-31/
     RDKit          3D

 17 18  0  0  0  0  0  0  0  0999 V2000
  -28.0162   -0.8135   28.8779 C   0  0  0  0  0  0  0  0  0  0  0  0
  -27.0636   -0.1189   28.6079 C   0  0  0  0  0  0  0  0  0  0  0  0
  -26.9716    0.7139   27.5060 C   0  0  0  0  0  0  0  0  0  0  0  0
  -25.8205    1.4909   27.1160 C   0  0  0  0  0  0  0  0  0  0  0  0
  -24.6562    1.4242   27.9180 C   0  0  0  0  0  0  0  0  0  0  0  0
  -24.6847    0.5901   29.0659 C   0  0  0  0  0  0  0  0  0  0  0  0
  -25.8099   -0.1265   29.3338 C   0  0  0  0  0  0  0  0  0  0  0  0
  -29.2185   -0.0422   29.3127 C   0  0  0  0  0  0  0  0  0  0  0  0
  -29.4896    0.0331   30.5462 C   0  0  0  0  0  0  0  0  0  0  0  0
  -30.0798    0.2849   28.2315 C   0  0  0  0  0  0  0  0  0  0  0  0
  -31.3284    0.8719   28.5509 C   0  0  0  0  0  0  0  0  0  0  0  0
  -30.7482    0.7427   30.8954 C   0  0  0  0  0  0  0  0  0  0  0  0
  -31.6192    1.1341   29.8887 C   0  0  0  0  0  0  0  0  0  0  0  0
  -23.4644    2.1756   27.5952 C   0  0  0  0  0  0  0  0  0  0  0  0
  -23.4422    3.0503   26.7850 O   0  0  0  0  0  0  0  0  0  0  0  0
  -22.2798    1.7682   28.0987 O   0  0  0  0  0  0  0  0  0  0  0  0
  -32.7853    1.7460   30.1725 O   0  0  0  0  0  0  0  0  0  0  0  0
  1  2  2  3
  2  3  1  0
  3  4  1  0
  4  5  1  0
  5  6  1  0
  2  7  1  0
  6  7  1  0
  1  8  1  0
  5 14  1  0
 14 15  2  0
 14 16  1  0
 13 17  1  0
  8  9  2  0
  9 12  1  0
 12 13  2  0
 13 11  1  0
 11 10  2  0
 10  8  1  0
M  END

$$$$
