No_4245-gen_results/8p0m/2024-11-27-11-27-31/
     RDKit          3D

 20 22  0  0  0  0  0  0  0  0999 V2000
  -28.0162   -0.8135   28.8779 C   0  0  0  0  0  0  0  0  0  0  0  0
  -28.4690   -0.7850   29.8287 C   0  0  0  0  0  0  0  0  0  0  0  0
  -28.1816    0.4277   28.1134 C   0  0  0  0  0  0  0  0  0  0  0  0
  -28.9841    1.4155   28.5154 C   0  0  0  0  0  0  0  0  0  0  0  0
  -29.3802    0.1384   30.4612 C   0  0  0  0  0  0  0  0  0  0  0  0
  -29.5415    1.2736   29.7242 C   0  0  0  0  0  0  0  0  0  0  0  0
  -27.4586    0.4934   26.7701 C   0  0  0  0  0  0  0  0  0  0  0  0
  -26.4813    1.5210   26.6301 C   0  0  0  0  0  0  0  0  0  0  0  0
  -25.6134    1.4724   25.4991 C   0  0  0  0  0  0  0  0  0  0  0  0
  -24.4510    2.2774   25.5566 C   0  0  0  0  0  0  0  0  0  0  0  0
  -24.2760    3.1851   26.6442 C   0  0  0  0  0  0  0  0  0  0  0  0
  -25.1433    3.2486   27.6712 C   0  0  0  0  0  0  0  0  0  0  0  0
  -26.2309    2.3776   27.7273 C   0  0  0  0  0  0  0  0  0  0  0  0
  -28.0798    0.2860   25.7804 C   0  0  0  0  0  0  0  0  0  0  0  0
  -28.7264    1.0814   24.9035 C   0  0  0  0  0  0  0  0  0  0  0  0
  -29.4266    0.6020   23.7760 C   0  0  0  0  0  0  0  0  0  0  0  0
  -30.3608    1.4602   23.2249 C   0  0  0  0  0  0  0  0  0  0  0  0
  -30.4768    2.8391   23.6069 C   0  0  0  0  0  0  0  0  0  0  0  0
  -29.7349    3.2969   24.7000 C   0  0  0  0  0  0  0  0  0  0  0  0
  -28.9750    2.4517   25.4152 C   0  0  0  0  0  0  0  0  0  0  0  0
  3  7  1  0
  7 14  1  0
  7  8  1  0
 14 15  1  0
 15 16  2  0
 16 17  1  0
 17 18  2  0
 18 19  1  0
 19 20  2  0
 20 15  1  0
  8  9  2  0
  9 10  1  0
 10 11  2  0
 11 12  1  0
 12 13  2  0
 13  8  1  0
  1  2  2  0
  2  5  1  0
  5  6  2  0
  6  4  1  0
  4  3  2  0
  3  1  1  0
M  END

$$$$
