No_4924-gen_results/8p0m/2024-11-27-11-27-31/
     RDKit          3D

 18 19  0  0  0  0  0  0  0  0999 V2000
  -28.0162   -0.8135   28.8779 C   0  0  0  0  0  0  0  0  0  0  0  0
  -27.0636   -0.1190   28.6079 C   0  0  0  0  0  0  0  0  0  0  0  0
  -26.9287    1.1713   29.0083 C   0  0  0  0  0  0  0  0  0  0  0  0
  -27.9560    1.7411   29.7840 C   0  0  0  0  0  0  0  0  0  0  0  0
  -28.7721   -0.4537   29.8696 C   0  0  0  0  0  0  0  0  0  0  0  0
  -28.8636    0.8725   30.2920 C   0  0  0  0  0  0  0  0  0  0  0  0
  -25.9326   -0.5497   27.6464 C   0  0  0  0  0  0  0  0  0  0  0  0
  -24.6553   -0.8280   28.3603 C   0  0  0  0  0  0  0  0  0  0  0  0
  -23.6063    0.0641   28.5126 C   0  0  0  0  0  0  0  0  0  0  0  0
  -22.4381   -0.3504   29.1919 C   0  0  0  0  0  0  0  0  0  0  0  0
  -24.6325   -1.9653   29.2263 C   0  0  0  0  0  0  0  0  0  0  0  0
  -23.4702   -2.3343   29.8759 C   0  0  0  0  0  0  0  0  0  0  0  0
  -22.3767   -1.4908   29.8543 C   0  0  0  0  0  0  0  0  0  0  0  0
  -30.1127    1.3822   31.3987 Cl  0  0  0  0  0  0  0  0  0  0  0  0
  -23.6134    1.5802   27.6437 Cl  0  0  0  0  0  0  0  0  0  0  0  0
  -27.8246    3.1648   30.2476 C   0  0  0  0  0  0  0  0  0  0  0  0
  -28.6877    3.8925   30.2692 O   0  0  0  0  0  0  0  0  0  0  0  0
  -26.5376    3.5009   30.4975 O   0  0  0  0  0  0  0  0  0  0  0  0
  2  7  1  0
  7  8  1  0
  6 14  1  0
  9 15  1  0
  4 16  1  0
 16 17  1  0
 16 18  2  0
  8  9  2  0
  9 10  1  0
 10 13  2  0
 13 12  1  0
 12 11  2  0
 11  8  1  0
  1  2  2  0
  2  3  1  0
  3  4  2  0
  4  6  1  0
  6  5  2  0
  5  1  1  0
M  END

$$$$
