No_486-gen_results/8p0m/2024-11-27-11-27-31/
     RDKit          3D

 23 24  0  0  0  0  0  0  0  0999 V2000
  -28.0162   -0.8135   28.8779 C   0  0  0  0  0  0  0  0  0  0  0  0
  -27.0636   -0.1189   28.6079 C   0  0  0  0  0  0  0  0  0  0  0  0
  -26.8756    1.1325   28.9134 C   0  0  0  0  0  0  0  0  0  0  0  0
  -27.9014    1.8066   29.6436 C   0  0  0  0  0  0  0  0  0  0  0  0
  -29.0458   -0.2316   29.7181 C   0  0  0  0  0  0  0  0  0  0  0  0
  -28.9402    1.0517   30.0597 C   0  0  0  0  0  0  0  0  0  0  0  0
  -25.8732   -0.7125   27.8045 C   0  0  0  0  0  0  0  0  0  0  0  0
  -24.5444   -0.3956   28.3291 C   0  0  0  0  0  0  0  0  0  0  0  0
  -24.2383    0.9594   28.4494 C   0  0  0  0  0  0  0  0  0  0  0  0
  -24.8733    1.8736   28.4513 C   0  0  0  0  0  0  0  0  0  0  0  0
  -25.7970    2.1151   28.8587 C   0  0  0  0  0  0  0  0  0  0  0  0
  -22.6778    0.9246   28.1090 C   0  0  0  0  0  0  0  0  0  0  0  0
  -22.1926    1.8047   27.3015 N   0  0  0  0  0  0  0  0  0  0  0  0
  -21.6492   -0.0734   29.0279 Cl  0  0  0  0  0  0  0  0  0  0  0  0
  -30.2251   -1.1384   30.0607 C   0  0  0  0  0  0  0  0  0  0  0  0
  -30.1070   -2.0559   30.6179 O   0  0  0  0  0  0  0  0  0  0  0  0
  -31.3807   -0.5535   30.0768 O   0  0  0  0  0  0  0  0  0  0  0  0
  -32.4934   -1.2745   29.8004 C   0  0  0  0  0  0  0  0  0  0  0  0
  -32.4749   -1.9450   28.6453 C   0  0  0  0  0  0  0  0  0  0  0  0
  -32.1853   -1.2254   27.4399 C   0  0  0  0  0  0  0  0  0  0  0  0
  -32.2270   -1.9441   26.1856 C   0  0  0  0  0  0  0  0  0  0  0  0
  -31.4923   -1.3268   25.2160 F   0  0  0  0  0  0  0  0  0  0  0  0
  -31.6550   -3.1693   26.3166 F   0  0  0  0  0  0  0  0  0  0  0  0
  2  7  1  0
  7  8  1  0
  8  9  1  0
  9 10  2  0
  3 11  1  0
 10 11  1  0
  9 12  1  0
 12 13  1  0
 12 14  1  0
  5 15  1  0
 15 16  2  0
 15 17  1  0
 17 18  1  0
 18 19  1  0
 19 20  1  0
 20 21  2  3
 21 22  1  0
 21 23  1  0
  1  2  2  0
  2  3  1  0
  3  4  2  0
  4  6  1  0
  6  5  2  0
  5  1  1  0
M  END

$$$$
