No_4263-gen_results/8p0m/2024-11-27-11-27-31/
     RDKit          3D

 24 26  0  0  0  0  0  0  0  0999 V2000
  -28.0162   -0.8135   28.8779 C   0  0  0  0  0  0  0  0  0  0  0  0
  -27.0636   -0.1190   28.6079 C   0  0  0  0  0  0  0  0  0  0  0  0
  -25.7647   -0.3897   29.0360 C   0  0  0  0  0  0  0  0  0  0  0  0
  -25.5296   -1.5302   29.9014 C   0  0  0  0  0  0  0  0  0  0  0  0
  -26.6577   -2.2915   30.2035 C   0  0  0  0  0  0  0  0  0  0  0  0
  -27.8548   -1.9555   29.7630 C   0  0  0  0  0  0  0  0  0  0  0  0
  -24.5441    0.4126   28.7379 C   0  0  0  0  0  0  0  0  0  0  0  0
  -24.0952    1.3785   29.5751 C   0  0  0  0  0  0  0  0  0  0  0  0
  -23.2771    2.1123   29.3313 C   0  0  0  0  0  0  0  0  0  0  0  0
  -22.4421    2.0513   28.0964 C   0  0  0  0  0  0  0  0  0  0  0  0
  -23.8786    0.3688   27.5114 C   0  0  0  0  0  0  0  0  0  0  0  0
  -22.8563    1.1569   27.2439 C   0  0  0  0  0  0  0  0  0  0  0  0
  -29.0238   -2.7833   30.1743 C   0  0  0  0  0  0  0  0  0  0  0  0
  -30.0620   -2.4839   29.9723 O   0  0  0  0  0  0  0  0  0  0  0  0
  -28.6749   -4.0409   30.6245 O   0  0  0  0  0  0  0  0  0  0  0  0
  -26.9961    0.9971   27.5888 C   0  0  0  0  0  0  0  0  0  0  0  0
  -27.4558    2.1395   28.1077 C   0  0  0  0  0  0  0  0  0  0  0  0
  -27.5330    3.2732   27.2483 C   0  0  0  0  0  0  0  0  0  0  0  0
  -26.8765    0.7981   26.2715 C   0  0  0  0  0  0  0  0  0  0  0  0
  -26.9535    1.8415   25.3612 C   0  0  0  0  0  0  0  0  0  0  0  0
  -27.2733    3.1172   25.8529 C   0  0  0  0  0  0  0  0  0  0  0  0
  -24.1759   -1.8580   30.3914 C   0  0  0  0  0  0  0  0  0  0  0  0
  -27.6844    2.5462   29.7482 Cl  0  0  0  0  0  0  0  0  0  0  0  0
  -24.8043    1.3549   30.8342 F   0  0  0  0  0  0  0  0  0  0  0  0
  3  7  1  0
  6 13  1  0
 13 14  2  0
 13 15  1  0
  2 16  1  0
  4 22  1  0
 17 23  1  0
  8 24  1  0
  7  8  2  0
  8  9  1  0
  9 10  2  0
 10 12  1  0
 12 11  2  0
 11  7  1  0
  1  2  2  0
  2  3  1  0
  3  4  2  0
  4  5  1  0
  5  6  2  0
  6  1  1  0
 16 17  2  0
 17 18  1  0
 18 21  2  0
 21 20  1  0
 20 19  2  0
 19 16  1  0
M  END

$$$$
