No_4120-gen_results/8p0m/2024-11-27-11-27-31/
     RDKit          3D

  9  9  0  0  0  0  0  0  0  0999 V2000
  -28.0162   -0.8135   28.8779 C   0  0  0  0  0  0  0  0  0  0  0  0
  -27.0636   -0.1189   28.6079 C   0  0  0  0  0  0  0  0  0  0  0  0
  -26.9849    0.5972   27.5218 N   0  0  0  0  0  0  0  0  0  0  0  0
  -27.9606   -1.5421   30.1660 C   0  0  0  0  0  0  0  0  0  0  0  0
  -26.7813   -1.6198   30.8836 C   0  0  0  0  0  0  0  0  0  0  0  0
  -25.6460   -0.9697   30.4630 C   0  0  0  0  0  0  0  0  0  0  0  0
  -25.7563   -0.1767   29.2863 C   0  0  0  0  0  0  0  0  0  0  0  0
  -25.9019    0.8964   26.8088 C   0  0  0  0  0  0  0  0  0  0  0  0
  -24.6584    0.9713   27.4796 C   0  0  0  0  0  0  0  0  0  0  0  0
  2  3  1  0
  3  8  1  0
  8  9  2  0
  1  2  2  0
  2  7  1  0
  7  6  2  0
  6  5  1  0
  5  4  2  0
  4  1  1  0
M  END

$$$$
