No_471-gen_results/8p0m/2024-11-27-11-27-31/
     RDKit          3D

 16 17  0  0  0  0  0  0  0  0999 V2000
  -28.0162   -0.8135   28.8779 C   0  0  0  0  0  0  0  0  0  0  0  0
  -28.4690   -0.7850   29.8287 C   0  0  0  0  0  0  0  0  0  0  0  0
  -27.0871    0.2903   28.6377 C   0  0  0  0  0  0  0  0  0  0  0  0
  -26.2516    0.4114   27.4223 C   0  0  0  0  0  0  0  0  0  0  0  0
  -28.3913    0.1041   30.9805 C   0  0  0  0  0  0  0  0  0  0  0  0
  -27.5332    1.1666   30.7866 C   0  0  0  0  0  0  0  0  0  0  0  0
  -26.8281    1.2557   29.6454 C   0  0  0  0  0  0  0  0  0  0  0  0
  -25.6444    1.6653   27.2216 C   0  0  0  0  0  0  0  0  0  0  0  0
  -24.7284    1.7917   26.1073 C   0  0  0  0  0  0  0  0  0  0  0  0
  -24.4592    0.7296   25.2822 C   0  0  0  0  0  0  0  0  0  0  0  0
  -25.2987   -0.3768   25.4107 C   0  0  0  0  0  0  0  0  0  0  0  0
  -26.0799   -0.5809   26.5239 C   0  0  0  0  0  0  0  0  0  0  0  0
  -23.9228    3.0317   25.9381 C   0  0  0  0  0  0  0  0  0  0  0  0
  -24.4606    3.7830   25.2273 F   0  0  0  0  0  0  0  0  0  0  0  0
  -23.8266    3.5590   27.2886 F   0  0  0  0  0  0  0  0  0  0  0  0
  -22.6890    2.7546   25.5351 F   0  0  0  0  0  0  0  0  0  0  0  0
  3  4  1  0
  9 13  1  0
 13 14  1  0
 13 15  1  0
 13 16  1  0
  4  8  2  0
  8  9  1  0
  9 10  2  0
 10 11  1  0
 11 12  2  0
 12  4  1  0
  1  2  2  0
  2  5  1  0
  5  6  2  0
  6  7  1  0
  7  3  2  0
  3  1  1  0
M  END

$$$$
