No_4248-gen_results/8p0m/2024-11-27-11-27-31/
     RDKit          3D

 27 30  0  0  0  0  0  0  0  0999 V2000
  -28.0162   -0.8135   28.8779 C   0  0  0  0  0  0  0  0  0  0  0  0
  -27.0636   -0.1190   28.6079 C   0  0  0  0  0  0  0  0  0  0  0  0
  -26.9716    0.7139   27.5060 C   0  0  0  0  0  0  0  0  0  0  0  0
  -28.1053    0.7744   26.6421 C   0  0  0  0  0  0  0  0  0  0  0  0
  -29.2008    0.1044   27.0527 C   0  0  0  0  0  0  0  0  0  0  0  0
  -29.2096   -0.6029   28.1853 C   0  0  0  0  0  0  0  0  0  0  0  0
  -30.3702    0.2264   26.1604 C   0  0  0  0  0  0  0  0  0  0  0  0
  -31.2210   -0.4630   26.3096 O   0  0  0  0  0  0  0  0  0  0  0  0
  -30.5607    1.2740   25.4131 O   0  0  0  0  0  0  0  0  0  0  0  0
  -25.6972   -0.2253   29.4237 C   0  0  0  0  0  0  0  0  0  0  0  0
  -25.3631   -0.9277   30.0714 C   0  0  0  0  0  0  0  0  0  0  0  0
  -24.0620   -1.0021   30.8407 C   0  0  0  0  0  0  0  0  0  0  0  0
  -23.1461   -0.0033   30.5264 C   0  0  0  0  0  0  0  0  0  0  0  0
  -23.5156    0.9503   29.5669 C   0  0  0  0  0  0  0  0  0  0  0  0
  -24.8054    0.9325   28.9343 C   0  0  0  0  0  0  0  0  0  0  0  0
  -24.9996    1.8628   27.9285 C   0  0  0  0  0  0  0  0  0  0  0  0
  -26.0085    1.7408   27.2090 C   0  0  0  0  0  0  0  0  0  0  0  0
  -23.8797    2.3955   27.5277 O   0  0  0  0  0  0  0  0  0  0  0  0
  -26.0868    2.5113   26.1032 O   0  0  0  0  0  0  0  0  0  0  0  0
  -28.1029   -1.6465   29.9414 O   0  0  0  0  0  0  0  0  0  0  0  0
  -29.2816   -2.0688   30.4081 C   0  0  0  0  0  0  0  0  0  0  0  0
  -29.1396   -2.6348   31.7420 C   0  0  0  0  0  0  0  0  0  0  0  0
  -30.3494   -2.6267   32.5234 C   0  0  0  0  0  0  0  0  0  0  0  0
  -31.2907   -2.3571   32.0115 C   0  0  0  0  0  0  0  0  0  0  0  0
  -31.5853   -1.7451   30.7742 C   0  0  0  0  0  0  0  0  0  0  0  0
  -30.4807   -1.6086   30.0507 C   0  0  0  0  0  0  0  0  0  0  0  0
  -30.2273   -0.8093   28.8748 N   0  0  0  0  0  0  0  0  0  0  0  0
  5  7  1  0
  7  8  1  0
  7  9  2  0
  2 10  1  0
 15 16  1  0
  3 17  1  0
 16 17  1  0
 16 18  2  0
 17 19  1  0
  1 20  1  0
 20 21  1  0
  6 27  1  0
  1  2  2  0
  2  3  1  0
  3  4  2  0
  4  5  1  0
  5  6  2  0
  6  1  1  0
 10 11  2  0
 11 12  1  0
 12 13  2  0
 13 14  1  0
 14 15  2  0
 15 10  1  0
 21 22  2  0
 22 23  1  0
 23 24  2  0
 24 25  1  0
 25 26  2  0
 26 21  1  0
M  END

$$$$
