No_436-gen_results/8p0m/2024-11-27-11-27-31/
     RDKit          3D

 16 16  0  0  0  0  0  0  0  0999 V2000
  -28.0162   -0.8135   28.8779 C   0  0  0  0  0  0  0  0  0  0  0  0
  -27.0636   -0.1189   28.6079 C   0  0  0  0  0  0  0  0  0  0  0  0
  -26.9287    1.1713   29.0083 C   0  0  0  0  0  0  0  0  0  0  0  0
  -25.7702    2.0341   28.6884 C   0  0  0  0  0  0  0  0  0  0  0  0
  -24.7141    1.4431   27.9188 C   0  0  0  0  0  0  0  0  0  0  0  0
  -24.8590    0.0783   27.5836 C   0  0  0  0  0  0  0  0  0  0  0  0
  -25.9647   -0.6606   27.9164 C   0  0  0  0  0  0  0  0  0  0  0  0
  -28.7025   -0.6427   30.0750 N   0  0  0  0  0  0  0  0  0  0  0  0
  -29.7976   -1.3633   30.5080 C   0  0  0  0  0  0  0  0  0  0  0  0
  -30.3289   -2.2310   29.7449 C   0  0  0  0  0  0  0  0  0  0  0  0
  -31.0995   -2.1157   29.0061 N   0  0  0  0  0  0  0  0  0  0  0  0
  -23.5268    2.1656   27.5660 C   0  0  0  0  0  0  0  0  0  0  0  0
  -23.4238    2.9132   26.8842 F   0  0  0  0  0  0  0  0  0  0  0  0
  -22.3579    1.5745   28.0372 F   0  0  0  0  0  0  0  0  0  0  0  0
  -30.1686   -3.5174   30.1947 O   0  0  0  0  0  0  0  0  0  0  0  0
  -30.1882   -1.1918   31.7540 O   0  0  0  0  0  0  0  0  0  0  0  0
  1  2  1  0
  1  8  1  0
  8  9  1  0
  9 10  1  0
 10 11  1  0
  5 12  1  0
 12 13  1  0
 12 14  1  0
 10 15  2  0
  9 16  2  0
  2  3  2  0
  3  4  1  0
  4  5  2  0
  5  6  1  0
  6  7  2  0
  7  2  1  0
M  END

$$$$
