No_4775-gen_results/8p0m/2024-11-27-11-27-31/
     RDKit          3D

 14 15  0  0  0  0  0  0  0  0999 V2000
  -28.1229   -1.3353   28.4874 O   0  0  0  0  0  0  0  0  0  0  0  0
  -27.0637   -0.8242   28.8687 C   0  0  0  0  0  0  0  0  0  0  0  0
  -26.4017   -0.0623   28.6224 C   0  0  0  0  0  0  0  0  0  0  0  0
  -26.5721   -1.5844   30.1172 N   0  0  0  0  0  0  0  0  0  0  0  0
  -25.0209    0.3562   29.0444 C   0  0  0  0  0  0  0  0  0  0  0  0
  -24.6646   -0.3860   30.2421 C   0  0  0  0  0  0  0  0  0  0  0  0
  -25.4289   -1.3599   30.6870 C   0  0  0  0  0  0  0  0  0  0  0  0
  -26.7082    0.8260   27.3474 C   0  0  0  0  0  0  0  0  0  0  0  0
  -25.8400    1.6069   26.7367 C   0  0  0  0  0  0  0  0  0  0  0  0
  -24.5767    1.9652   27.3611 C   0  0  0  0  0  0  0  0  0  0  0  0
  -24.1308    1.2647   28.4703 C   0  0  0  0  0  0  0  0  0  0  0  0
  -22.8082    1.5364   28.9924 C   0  0  0  0  0  0  0  0  0  0  0  0
  -22.5670    1.4384   30.0418 O   0  0  0  0  0  0  0  0  0  0  0  0
  -21.9195    1.9919   28.1030 O   0  0  0  0  0  0  0  0  0  0  0  0
  1  2  2  0
  2  3  1  0
  2  4  1  0
  5  6  1  0
  6  7  1  0
 11 12  1  0
 12 13  1  0
 12 14  2  0
  7  4  1  0
  3  8  2  0
  8  9  1  0
  9 10  2  0
 10 11  1  0
 11  5  2  0
  5  3  1  0
M  END

$$$$
