No_4241-gen_results/8p0m/2024-11-27-11-27-31/
     RDKit          3D

 16 17  0  0  0  0  0  0  0  0999 V2000
  -28.0162   -0.8135   28.8779 C   0  0  0  0  0  0  0  0  0  0  0  0
  -28.4690   -0.7850   29.8287 C   0  0  0  0  0  0  0  0  0  0  0  0
  -26.5042   -0.7777   28.8766 C   0  0  0  0  0  0  0  0  0  0  0  0
  -25.9500    0.1157   29.4052 C   0  0  0  0  0  0  0  0  0  0  0  0
  -29.9713   -0.8318   29.8595 C   0  0  0  0  0  0  0  0  0  0  0  0
  -24.4521    0.1950   29.4758 C   0  0  0  0  0  0  0  0  0  0  0  0
  -23.8116    1.4248   29.3432 C   0  0  0  0  0  0  0  0  0  0  0  0
  -24.6094    2.5882   29.5588 C   0  0  0  0  0  0  0  0  0  0  0  0
  -25.9530    2.5542   29.5631 C   0  0  0  0  0  0  0  0  0  0  0  0
  -26.5571    1.3141   29.4431 C   0  0  0  0  0  0  0  0  0  0  0  0
  -30.5866   -0.6433   28.7106 C   0  0  0  0  0  0  0  0  0  0  0  0
  -29.9183   -0.4209   27.5658 C   0  0  0  0  0  0  0  0  0  0  0  0
  -28.5453   -0.4441   27.6074 C   0  0  0  0  0  0  0  0  0  0  0  0
  -26.6983    3.8064   29.6520 C   0  0  0  0  0  0  0  0  0  0  0  0
  -27.8795    3.8393   29.3920 O   0  0  0  0  0  0  0  0  0  0  0  0
  -26.0722    4.8628   29.9996 O   0  0  0  0  0  0  0  0  0  0  0  0
  1  3  1  0
  9 14  1  0
 14 15  2  0
 14 16  1  0
  3  4  1  0
  1  2  2  0
  2  5  1  0
  5 11  2  0
 11 12  1  0
 12 13  2  0
 13  1  1  0
  4  6  2  0
  6  7  1  0
  7  8  2  0
  8  9  1  0
  9 10  2  0
 10  4  1  0
M  END

$$$$
