No_4521-gen_results/8p0m/2024-11-27-11-27-31/
     RDKit          3D

 31 34  0  0  0  0  0  0  0  0999 V2000
  -28.1229   -1.3353   28.4874 O   0  0  0  0  0  0  0  0  0  0  0  0
  -27.4806   -0.4044   28.7094 C   0  0  0  0  0  0  0  0  0  0  0  0
  -26.3804   -0.0867   27.9394 C   0  0  0  0  0  0  0  0  0  0  0  0
  -27.6664    0.4468   29.8988 N   0  0  0  0  0  0  0  0  0  0  0  0
  -26.4087    0.8567   26.8802 C   0  0  0  0  0  0  0  0  0  0  0  0
  -25.0824   -0.6970   28.1699 C   0  0  0  0  0  0  0  0  0  0  0  0
  -25.2842    1.0488   26.0470 C   0  0  0  0  0  0  0  0  0  0  0  0
  -23.9159   -0.3440   27.4444 C   0  0  0  0  0  0  0  0  0  0  0  0
  -24.0618    0.5290   26.3706 C   0  0  0  0  0  0  0  0  0  0  0  0
  -26.9084    1.5761   30.3304 C   0  0  0  0  0  0  0  0  0  0  0  0
  -27.2388    2.0297   31.4415 C   0  0  0  0  0  0  0  0  0  0  0  0
  -28.7619    0.0369   30.7861 C   0  0  0  0  0  0  0  0  0  0  0  0
  -28.2985    1.5419   32.0822 C   0  0  0  0  0  0  0  0  0  0  0  0
  -28.9766    0.6172   31.9325 C   0  0  0  0  0  0  0  0  0  0  0  0
  -24.9180   -1.6202   29.3322 C   0  0  0  0  0  0  0  0  0  0  0  0
  -27.6728    1.4806   26.4379 C   0  0  0  0  0  0  0  0  0  0  0  0
  -27.7653    2.6385   26.8844 N   0  0  0  0  0  0  0  0  0  0  0  0
  -28.7718    3.3322   27.2573 C   0  0  0  0  0  0  0  0  0  0  0  0
  -29.8399    2.7722   27.3371 O   0  0  0  0  0  0  0  0  0  0  0  0
  -28.5989    4.7659   27.7828 C   0  0  0  0  0  0  0  0  0  0  0  0
  -28.5869    2.3694   33.5040 C   0  0  0  0  0  0  0  0  0  0  0  0
  -29.0943    1.8547   34.3335 O   0  0  0  0  0  0  0  0  0  0  0  0
  -28.5348    3.7117   33.3701 O   0  0  0  0  0  0  0  0  0  0  0  0
  -28.5081    0.8614   25.9278 F   0  0  0  0  0  0  0  0  0  0  0  0
  -26.4183    3.5412   26.8823 C   0  0  0  0  0  0  0  0  0  0  0  0
  -26.3943    4.7914   27.4169 C   0  0  0  0  0  0  0  0  0  0  0  0
  -27.4929    5.4108   27.8144 C   0  0  0  0  0  0  0  0  0  0  0  0
  -25.0372    5.4644   27.3754 C   0  0  0  0  0  0  0  0  0  0  0  0
  -24.9364    6.5444   28.1037 N   0  0  0  0  0  0  0  0  0  0  0  0
  -25.9256    7.1913   28.7208 C   0  0  0  0  0  0  0  0  0  0  0  0
  -27.2270    6.6553   28.5928 C   0  0  0  0  0  0  0  0  0  0  0  0
  1  2  2  0
  2  3  1  0
  2  4  1  0
  4 10  1  0
  4 12  1  0
 11 13  1  0
 12 14  1  0
 13 14  1  0
  6 15  1  0
  5 16  1  0
 16 17  1  0
 17 18  1  0
 18 19  2  0
 18 20  1  0
 13 21  1  0
 21 22  1  0
 21 23  2  0
 16 24  1  0
 17 25  1  0
 20 27  1  0
 26 25  1  0
 10 11  1  0
 26 27  2  0
 27 31  1  0
 31 30  2  0
 30 29  1  0
 29 28  2  0
 28 26  1  0
  3  5  2  0
  5  7  1  0
  7  9  2  0
  9  8  1  0
  8  6  2  0
  6  3  1  0
M  END

$$$$
