No_4366-gen_results/8p0m/2024-11-27-11-27-31/
     RDKit          3D

 35 40  0  0  0  0  0  0  0  0999 V2000
  -28.0162   -0.8135   28.8779 C   0  0  0  0  0  0  0  0  0  0  0  0
  -28.4690   -0.7850   29.8287 C   0  0  0  0  0  0  0  0  0  0  0  0
  -26.5455   -0.8762   28.8500 C   0  0  0  0  0  0  0  0  0  0  0  0
  -25.8041   -1.0324   30.0571 C   0  0  0  0  0  0  0  0  0  0  0  0
  -26.5373   -1.0386   31.2171 C   0  0  0  0  0  0  0  0  0  0  0  0
  -27.8843   -0.9532   31.1862 C   0  0  0  0  0  0  0  0  0  0  0  0
  -24.3555   -1.1121   30.0346 C   0  0  0  0  0  0  0  0  0  0  0  0
  -23.7079   -1.1920   30.8827 C   0  0  0  0  0  0  0  0  0  0  0  0
  -22.1991   -1.0954   30.9345 C   0  0  0  0  0  0  0  0  0  0  0  0
  -21.6564   -0.8348   29.7237 C   0  0  0  0  0  0  0  0  0  0  0  0
  -22.4112   -0.6494   28.5512 C   0  0  0  0  0  0  0  0  0  0  0  0
  -23.8549   -0.7780   28.7009 C   0  0  0  0  0  0  0  0  0  0  0  0
  -25.8281   -0.8194   27.7150 N   0  0  0  0  0  0  0  0  0  0  0  0
  -24.6117   -0.6376   27.6323 N   0  0  0  0  0  0  0  0  0  0  0  0
  -30.0583   -0.7584   29.9501 C   0  0  0  0  0  0  0  0  0  0  0  0
  -30.5964   -0.0532   29.2644 O   0  0  0  0  0  0  0  0  0  0  0  0
  -30.6382   -1.2436   30.9967 O   0  0  0  0  0  0  0  0  0  0  0  0
  -31.8537   -0.3602   28.6282 C   0  0  0  0  0  0  0  0  0  0  0  0
  -32.4564    0.8167   28.0947 C   0  0  0  0  0  0  0  0  0  0  0  0
  -31.9409    2.0122   28.2415 C   0  0  0  0  0  0  0  0  0  0  0  0
  -31.4265    2.7105   27.6461 N   0  0  0  0  0  0  0  0  0  0  0  0
  -30.4850    3.6424   27.9284 C   0  0  0  0  0  0  0  0  0  0  0  0
  -29.7208    3.6731   28.6011 C   0  0  0  0  0  0  0  0  0  0  0  0
  -30.1805    3.0704   29.9453 C   0  0  0  0  0  0  0  0  0  0  0  0
  -29.4731    3.1188   31.2041 C   0  0  0  0  0  0  0  0  0  0  0  0
  -31.2526    2.1571   29.6743 C   0  0  0  0  0  0  0  0  0  0  0  0
  -28.2212    2.9608   31.3336 N   0  0  0  0  0  0  0  0  0  0  0  0
  -27.6434    2.6608   32.5074 C   0  0  0  0  0  0  0  0  0  0  0  0
  -30.2753    3.4407   32.3386 C   0  0  0  0  0  0  0  0  0  0  0  0
  -29.6798    3.2493   33.6310 C   0  0  0  0  0  0  0  0  0  0  0  0
  -28.2788    2.9493   33.7071 C   0  0  0  0  0  0  0  0  0  0  0  0
  -27.3638    2.3950   30.2022 C   0  0  0  0  0  0  0  0  0  0  0  0
  -25.9672    2.8809   30.3816 C   0  0  0  0  0  0  0  0  0  0  0  0
  -25.3331    2.5185   31.6432 C   0  0  0  0  0  0  0  0  0  0  0  0
  -26.1656    2.6314   32.7133 C   0  0  0  0  0  0  0  0  0  0  0  0
  2 15  1  0
 15 16  1  0
 15 17  2  0
 16 18  1  0
 18 19  1  0
 19 20  1  0
 24 25  1  0
 25 27  1  0
 27 28  1  0
 25 29  1  0
 30 31  1  0
 27 32  1  0
 33 34  1  0
 28 35  1  0
 35 34  1  0
 33 32  1  0
 29 30  1  0
 31 28  1  0
  7  8  2  0
  8  9  1  0
  9 10  2  0
 10 11  1  0
 11 12  2  0
 20 21  2  0
 21 22  1  0
 22 23  2  0
 23 24  1  0
 24 26  2  0
 26 20  1  0
  1  2  2  0
  2  6  1  0
  6  5  2  0
  5  4  1  0
  3  1  1  0
  3  4  2  0
  4  7  1  0
  7 12  1  0
 12 14  1  0
 14 13  2  0
 13  3  1  0
M  END

$$$$
