No_4427-gen_results/8p0m/2024-11-27-11-27-31/
     RDKit          3D

 20 22  0  0  0  0  0  0  0  0999 V2000
  -28.0162   -0.8135   28.8779 C   0  0  0  0  0  0  0  0  0  0  0  0
  -27.0636   -0.1190   28.6079 C   0  0  0  0  0  0  0  0  0  0  0  0
  -27.0010    0.6913   27.4910 C   0  0  0  0  0  0  0  0  0  0  0  0
  -25.8548    1.4825   27.0830 C   0  0  0  0  0  0  0  0  0  0  0  0
  -24.6901    1.4526   27.8807 C   0  0  0  0  0  0  0  0  0  0  0  0
  -24.7379    0.6010   29.0416 C   0  0  0  0  0  0  0  0  0  0  0  0
  -25.8234   -0.1688   29.3887 C   0  0  0  0  0  0  0  0  0  0  0  0
  -29.2150   -0.1725   29.0132 N   0  0  0  0  0  0  0  0  0  0  0  0
  -30.2463   -0.7735   29.6388 C   0  0  0  0  0  0  0  0  0  0  0  0
  -23.5190    2.2034   27.5550 C   0  0  0  0  0  0  0  0  0  0  0  0
  -23.6198    2.9624   26.6621 F   0  0  0  0  0  0  0  0  0  0  0  0
  -22.9780    2.8899   28.5956 F   0  0  0  0  0  0  0  0  0  0  0  0
  -22.4337    1.2940   27.3862 F   0  0  0  0  0  0  0  0  0  0  0  0
  -29.9993   -1.9205   30.3476 C   0  0  0  0  0  0  0  0  0  0  0  0
  -28.7286   -2.5278   30.3833 C   0  0  0  0  0  0  0  0  0  0  0  0
  -27.7072   -1.8463   29.8462 C   0  0  0  0  0  0  0  0  0  0  0  0
  -31.4051   -0.2976   29.5586 O   0  0  0  0  0  0  0  0  0  0  0  0
  -26.3408   -2.2966   30.0029 C   0  0  0  0  0  0  0  0  0  0  0  0
  -25.4502   -1.7277   29.6600 C   0  0  0  0  0  0  0  0  0  0  0  0
  -31.0475   -2.5661   30.9094 O   0  0  0  0  0  0  0  0  0  0  0  0
  1  2  1  0
  1  8  1  0
  8  9  1  0
  5 10  1  0
 10 11  1  0
 10 12  1  0
 10 13  1  0
  9 14  1  0
  1 16  1  0
 15 16  1  0
  9 17  2  0
 16 18  1  0
  7 19  1  0
 18 19  1  0
 14 20  1  0
 15 14  1  0
  2  3  2  0
  3  4  1  0
  4  5  2  0
  5  6  1  0
  6  7  2  0
  7  2  1  0
M  END

$$$$
