No_4598-gen_results/8p0m/2024-11-27-11-27-31/
     RDKit          3D

 14 14  0  0  0  0  0  0  0  0999 V2000
  -28.1493   -0.8198   28.9079 Cl  0  0  0  0  0  0  0  0  0  0  0  0
  -27.8339    0.4961   29.0598 C   0  0  0  0  0  0  0  0  0  0  0  0
  -27.8833    1.0376   30.1944 F   0  0  0  0  0  0  0  0  0  0  0  0
  -26.3797    0.7729   28.5385 C   0  0  0  0  0  0  0  0  0  0  0  0
  -28.6112    1.2493   28.2241 F   0  0  0  0  0  0  0  0  0  0  0  0
  -26.0297    0.7143   27.2839 C   0  0  0  0  0  0  0  0  0  0  0  0
  -24.7312    0.6764   26.8790 C   0  0  0  0  0  0  0  0  0  0  0  0
  -23.6915    0.8262   27.8332 C   0  0  0  0  0  0  0  0  0  0  0  0
  -24.0222    0.9032   29.1946 C   0  0  0  0  0  0  0  0  0  0  0  0
  -25.3350    0.8376   29.5332 C   0  0  0  0  0  0  0  0  0  0  0  0
  -22.0904    1.0016   27.3133 Cl  0  0  0  0  0  0  0  0  0  0  0  0
  -26.9707    0.5338   26.1596 C   0  0  0  0  0  0  0  0  0  0  0  0
  -26.4752    0.0231   24.9831 N   0  0  0  0  0  0  0  0  0  0  0  0
  -28.1429    0.7296   26.2040 F   0  0  0  0  0  0  0  0  0  0  0  0
  1  2  1  0
  2  3  1  0
  2  4  1  0
  2  5  1  0
  8 11  1  0
  6 12  1  0
 12 13  2  0
 12 14  1  0
  4  6  2  0
  6  7  1  0
  7  8  2  0
  8  9  1  0
  9 10  2  0
 10  4  1  0
M  END

$$$$
