No_4648-gen_results/8p0m/2024-11-27-11-27-31/
     RDKit          3D

  5  4  0  0  0  0  0  0  0  0999 V2000
  -28.0162   -0.8135   28.8779 C   0  0  0  0  0  0  0  0  0  0  0  0
  -28.4690   -0.7850   29.8287 C   0  0  0  0  0  0  0  0  0  0  0  0
  -28.1915    0.1474   27.8714 C   0  0  0  0  0  0  0  0  0  0  0  0
  -27.3336    0.3041   26.7482 C   0  0  0  0  0  0  0  0  0  0  0  0
  -27.6635    0.9845   25.6288 C   0  0  0  0  0  0  0  0  0  0  0  0
  1  2  3  0
  1  3  1  0
  3  4  1  0
  4  5  2  0
M  END

$$$$
