No_4640-gen_results/8p0m/2024-11-27-11-27-31/
     RDKit          3D

 28 30  0  0  0  0  0  0  0  0999 V2000
  -28.0162   -0.8135   28.8779 C   0  0  0  0  0  0  0  0  0  0  0  0
  -28.4690   -0.7850   29.8287 C   0  0  0  0  0  0  0  0  0  0  0  0
  -28.1960    0.3478   28.0550 C   0  0  0  0  0  0  0  0  0  0  0  0
  -27.4421    0.5100   26.7946 C   0  0  0  0  0  0  0  0  0  0  0  0
  -26.4394    0.8329   26.6142 C   0  0  0  0  0  0  0  0  0  0  0  0
  -25.2141    0.6624   26.7020 C   0  0  0  0  0  0  0  0  0  0  0  0
  -24.0100    0.7553   27.3224 C   0  0  0  0  0  0  0  0  0  0  0  0
  -23.5093    0.1233   28.4818 C   0  0  0  0  0  0  0  0  0  0  0  0
  -24.3016   -0.7452   29.2187 C   0  0  0  0  0  0  0  0  0  0  0  0
  -29.5043    0.0701   30.3699 C   0  0  0  0  0  0  0  0  0  0  0  0
  -29.7910    1.1480   29.5853 C   0  0  0  0  0  0  0  0  0  0  0  0
  -29.1431    1.3164   28.3905 C   0  0  0  0  0  0  0  0  0  0  0  0
  -23.7725   -1.4238   30.2915 C   0  0  0  0  0  0  0  0  0  0  0  0
  -24.6031   -2.1962   31.0454 C   0  0  0  0  0  0  0  0  0  0  0  0
  -28.2989   -0.0469   25.6800 C   0  0  0  0  0  0  0  0  0  0  0  0
  -26.4867    2.4424   26.3011 C   0  0  0  0  0  0  0  0  0  0  0  0
  -22.1684    0.4709   28.9639 C   0  0  0  0  0  0  0  0  0  0  0  0
  -22.4417   -1.0940   30.7421 C   0  0  0  0  0  0  0  0  0  0  0  0
  -21.6883   -0.1758   30.0501 C   0  0  0  0  0  0  0  0  0  0  0  0
  -23.2563    1.9574   26.7690 C   0  0  0  0  0  0  0  0  0  0  0  0
  -25.4418   -1.4023   31.9182 C   0  0  0  0  0  0  0  0  0  0  0  0
  -25.5235   -0.2822   32.1780 N   0  0  0  0  0  0  0  0  0  0  0  0
  -26.4025    0.3500   33.0337 C   0  0  0  0  0  0  0  0  0  0  0  0
  -26.8398    1.3298   33.0213 C   0  0  0  0  0  0  0  0  0  0  0  0
  -27.8450    1.9090   33.9488 C   0  0  0  0  0  0  0  0  0  0  0  0
  -27.0030   -0.5572   34.0410 C   0  0  0  0  0  0  0  0  0  0  0  0
  -27.9455   -0.2012   34.9396 C   0  0  0  0  0  0  0  0  0  0  0  0
  -28.3572    1.1306   34.8809 C   0  0  0  0  0  0  0  0  0  0  0  0
  3  4  1  0
  4  5  1  0
  5  6  1  0
  6  7  1  0
 13 14  1  0
  4 15  1  0
  5 16  1  0
  7 20  1  0
 14 21  1  0
 21 22  2  3
 22 23  1  0
  7  8  1  0
 23 24  2  0
 24 25  1  0
 25 28  2  0
 28 27  1  0
 27 26  2  0
 26 23  1  0
  1  2  2  0
  2 10  1  0
 10 11  2  0
 11 12  1  0
 12  3  2  0
  3  1  1  0
  8  9  2  0
  9 13  1  0
 13 18  2  0
 18 19  1  0
 19 17  2  0
 17  8  1  0
M  END

$$$$
