No_4025-gen_results/8p0m/2024-11-27-11-27-31/
     RDKit          3D

 26 28  0  0  0  0  0  0  0  0999 V2000
  -28.0162   -0.8135   28.8779 C   0  0  0  0  0  0  0  0  0  0  0  0
  -27.0636   -0.1189   28.6079 C   0  0  0  0  0  0  0  0  0  0  0  0
  -25.7923   -0.4302   29.0761 C   0  0  0  0  0  0  0  0  0  0  0  0
  -25.5756   -1.5654   29.9363 C   0  0  0  0  0  0  0  0  0  0  0  0
  -26.7354   -2.3004   30.2173 C   0  0  0  0  0  0  0  0  0  0  0  0
  -27.9184   -1.9537   29.7629 C   0  0  0  0  0  0  0  0  0  0  0  0
  -29.0001   -2.7012   30.1151 O   0  0  0  0  0  0  0  0  0  0  0  0
  -24.5290    0.3490   28.7998 C   0  0  0  0  0  0  0  0  0  0  0  0
  -24.4808    1.2113   27.7998 C   0  0  0  0  0  0  0  0  0  0  0  0
  -23.2478    1.8974   27.4951 C   0  0  0  0  0  0  0  0  0  0  0  0
  -22.0497    1.5890   28.1642 C   0  0  0  0  0  0  0  0  0  0  0  0
  -23.3072    0.0149   29.4618 C   0  0  0  0  0  0  0  0  0  0  0  0
  -23.2871   -0.9252   30.5096 C   0  0  0  0  0  0  0  0  0  0  0  0
  -22.0352    0.7528   29.1006 C   0  0  0  0  0  0  0  0  0  0  0  0
  -24.3853   -1.8223   30.6773 C   0  0  0  0  0  0  0  0  0  0  0  0
  -30.1009   -2.1417   30.6463 C   0  0  0  0  0  0  0  0  0  0  0  0
  -30.5463   -2.8581   31.7111 C   0  0  0  0  0  0  0  0  0  0  0  0
  -29.8240   -3.8428   32.2549 C   0  0  0  0  0  0  0  0  0  0  0  0
  -31.9560   -3.3676   31.4356 O   0  0  0  0  0  0  0  0  0  0  0  0
  -30.4361   -4.8123   32.8542 O   0  0  0  0  0  0  0  0  0  0  0  0
  -31.0739   -2.0007   29.5799 O   0  0  0  0  0  0  0  0  0  0  0  0
  -31.2735   -0.7496   28.9423 C   0  0  0  0  0  0  0  0  0  0  0  0
  -32.5766   -0.5364   28.6702 C   0  0  0  0  0  0  0  0  0  0  0  0
  -32.8303    0.3282   27.9960 O   0  0  0  0  0  0  0  0  0  0  0  0
  -33.4253   -1.0562   29.4864 O   0  0  0  0  0  0  0  0  0  0  0  0
  -27.1776    1.0972   27.6960 C   0  0  0  0  0  0  0  0  0  0  0  0
  6  7  1  0
  3  8  1  0
 12 13  1  0
  4 15  1  0
 13 15  1  0
  7 16  1  0
 16 17  1  0
 17 18  1  0
 17 19  1  0
 18 20  1  0
 16 21  1  0
 21 22  1  0
 22 23  1  0
 23 24  2  0
 23 25  1  0
  2 26  1  0
  1  2  2  0
  2  3  1  0
  3  4  2  0
  4  5  1  0
  5  6  2  0
  6  1  1  0
  8  9  2  0
  9 10  1  0
 10 11  2  0
 11 14  1  0
 14 12  2  0
 12  8  1  0
M  END

$$$$
