No_4604-gen_results/8p0m/2024-11-27-11-27-31/
     RDKit          3D

 22 23  0  0  0  0  0  0  0  0999 V2000
  -28.1229   -1.3353   28.4874 O   0  0  0  0  0  0  0  0  0  0  0  0
  -28.5208   -0.4363   29.0779 C   0  0  0  0  0  0  0  0  0  0  0  0
  -28.5894    0.5916   28.9464 C   0  0  0  0  0  0  0  0  0  0  0  0
  -29.1246   -0.9399   30.4266 N   0  0  0  0  0  0  0  0  0  0  0  0
  -29.2955    1.6366   29.4337 C   0  0  0  0  0  0  0  0  0  0  0  0
  -27.7254    1.1211   27.7062 C   0  0  0  0  0  0  0  0  0  0  0  0
  -26.4562    1.1977   27.7794 C   0  0  0  0  0  0  0  0  0  0  0  0
  -25.7225    1.1696   28.7386 C   0  0  0  0  0  0  0  0  0  0  0  0
  -24.1919    1.1887   28.6649 C   0  0  0  0  0  0  0  0  0  0  0  0
  -23.3059    0.7559   29.6504 C   0  0  0  0  0  0  0  0  0  0  0  0
  -23.8984    0.3282   30.8942 C   0  0  0  0  0  0  0  0  0  0  0  0
  -25.2738    0.2857   31.0337 C   0  0  0  0  0  0  0  0  0  0  0  0
  -26.0778    0.6519   30.0022 C   0  0  0  0  0  0  0  0  0  0  0  0
  -29.1181   -2.3058   30.9026 C   0  0  0  0  0  0  0  0  0  0  0  0
  -30.1535    2.3160   29.1498 N   0  0  0  0  0  0  0  0  0  0  0  0
  -30.8401    3.1943   29.8357 C   0  0  0  0  0  0  0  0  0  0  0  0
  -29.0543    1.8449   30.8456 O   0  0  0  0  0  0  0  0  0  0  0  0
  -28.4482   -3.0296   30.5486 C   0  0  0  0  0  0  0  0  0  0  0  0
  -28.5719   -4.5015   30.7022 C   0  0  0  0  0  0  0  0  0  0  0  0
  -29.6238   -4.9425   31.4916 C   0  0  0  0  0  0  0  0  0  0  0  0
  -30.5084   -3.9346   31.9589 C   0  0  0  0  0  0  0  0  0  0  0  0
  -30.3297   -2.5740   31.6479 C   0  0  0  0  0  0  0  0  0  0  0  0
  1  2  2  0
  2  3  1  0
  2  4  1  0
  3  5  1  0
  3  6  1  0
  6  7  1  0
  4 14  1  0
  5 15  1  0
 15 16  2  0
  5 17  2  0
  7  8  1  0
 14 18  2  0
 18 19  1  0
 19 20  2  0
 20 21  1  0
 21 22  2  0
 22 14  1  0
  8  9  2  0
  9 10  1  0
 10 11  2  0
 11 12  1  0
 12 13  2  0
 13  8  1  0
M  END

$$$$
