No_4901-gen_results/8p0m/2024-11-27-11-27-31/
     RDKit          3D

 29 30  0  0  0  0  0  0  0  0999 V2000
  -28.0162   -0.8135   28.8779 C   0  0  0  0  0  0  0  0  0  0  0  0
  -27.0636   -0.1189   28.6079 C   0  0  0  0  0  0  0  0  0  0  0  0
  -26.9716    0.7139   27.5060 C   0  0  0  0  0  0  0  0  0  0  0  0
  -28.1053    0.7744   26.6421 C   0  0  0  0  0  0  0  0  0  0  0  0
  -29.2008    0.1044   27.0527 C   0  0  0  0  0  0  0  0  0  0  0  0
  -29.2096   -0.6029   28.1853 C   0  0  0  0  0  0  0  0  0  0  0  0
  -30.3702    0.2264   26.1604 C   0  0  0  0  0  0  0  0  0  0  0  0
  -31.2210   -0.4630   26.3096 O   0  0  0  0  0  0  0  0  0  0  0  0
  -30.3688    1.0652   25.1324 O   0  0  0  0  0  0  0  0  0  0  0  0
  -25.7012   -0.2199   29.4303 C   0  0  0  0  0  0  0  0  0  0  0  0
  -25.6011   -0.9038   30.2758 O   0  0  0  0  0  0  0  0  0  0  0  0
  -24.5959    0.3583   28.8324 O   0  0  0  0  0  0  0  0  0  0  0  0
  -23.6455    0.8187   29.7319 C   0  0  0  0  0  0  0  0  0  0  0  0
  -22.4363    1.1672   29.1170 C   0  0  0  0  0  0  0  0  0  0  0  0
  -21.5525    0.3355   28.7201 O   0  0  0  0  0  0  0  0  0  0  0  0
  -22.6385    2.2278   28.2031 O   0  0  0  0  0  0  0  0  0  0  0  0
  -23.8513    2.5276   27.7895 C   0  0  0  0  0  0  0  0  0  0  0  0
  -24.2223    3.7888   28.1328 C   0  0  0  0  0  0  0  0  0  0  0  0
  -25.5383    4.3010   27.5230 C   0  0  0  0  0  0  0  0  0  0  0  0
  -25.6718    4.0173   26.1707 C   0  0  0  0  0  0  0  0  0  0  0  0
  -24.9837    2.8868   25.6370 C   0  0  0  0  0  0  0  0  0  0  0  0
  -23.6706    2.5877   26.2348 C   0  0  0  0  0  0  0  0  0  0  0  0
  -26.3709    5.2796   28.1452 C   0  0  0  0  0  0  0  0  0  0  0  0
  -27.4510    5.4852   27.8474 O   0  0  0  0  0  0  0  0  0  0  0  0
  -25.9594    5.7018   29.4380 O   0  0  0  0  0  0  0  0  0  0  0  0
  -26.6600    6.6379   30.0906 C   0  0  0  0  0  0  0  0  0  0  0  0
  -27.3861    6.2572   31.0945 C   0  0  0  0  0  0  0  0  0  0  0  0
  -28.2299    6.8408   31.5047 O   0  0  0  0  0  0  0  0  0  0  0  0
  -26.7577    5.3363   31.8478 O   0  0  0  0  0  0  0  0  0  0  0  0
  5  7  1  0
  7  8  1  0
  7  9  2  0
  2 10  1  0
 10 11  2  0
 10 12  1  0
 12 13  1  0
 13 14  1  0
 14 15  2  0
 14 16  1  0
 16 17  1  0
 19 23  1  0
 23 24  2  0
 23 25  1  0
 25 26  1  0
 26 27  1  0
 27 28  1  0
 27 29  2  0
 17 18  2  0
 18 19  1  0
 19 20  2  0
 20 21  1  0
 21 22  2  0
 22 17  1  0
  1  2  2  0
  2  3  1  0
  3  4  2  0
  4  5  1  0
  5  6  2  0
  6  1  1  0
M  END

$$$$
