No_4436-gen_results/8p0m/2024-11-27-11-27-31/
     RDKit          3D

 18 19  0  0  0  0  0  0  0  0999 V2000
  -28.0162   -0.8135   28.8779 C   0  0  0  0  0  0  0  0  0  0  0  0
  -27.0636   -0.1189   28.6079 C   0  0  0  0  0  0  0  0  0  0  0  0
  -25.7647   -0.3897   29.0360 C   0  0  0  0  0  0  0  0  0  0  0  0
  -25.5296   -1.5302   29.9014 C   0  0  0  0  0  0  0  0  0  0  0  0
  -26.6888   -2.2893   30.1810 C   0  0  0  0  0  0  0  0  0  0  0  0
  -27.8727   -1.9508   29.7373 C   0  0  0  0  0  0  0  0  0  0  0  0
  -28.9304   -2.7298   30.1154 O   0  0  0  0  0  0  0  0  0  0  0  0
  -24.5394    0.4211   28.7421 C   0  0  0  0  0  0  0  0  0  0  0  0
  -24.5765    0.9394   27.5932 F   0  0  0  0  0  0  0  0  0  0  0  0
  -24.4318    1.4443   29.6101 F   0  0  0  0  0  0  0  0  0  0  0  0
  -23.3754   -0.2740   28.8549 F   0  0  0  0  0  0  0  0  0  0  0  0
  -28.7281   -3.9978   30.6607 C   0  0  0  0  0  0  0  0  0  0  0  0
  -29.8936   -4.8590   30.5304 C   0  0  0  0  0  0  0  0  0  0  0  0
  -30.9833   -4.2738   31.0232 C   0  0  0  0  0  0  0  0  0  0  0  0
  -31.9787   -4.2660   30.5473 C   0  0  0  0  0  0  0  0  0  0  0  0
  -32.1170   -4.9163   29.2150 C   0  0  0  0  0  0  0  0  0  0  0  0
  -31.0806   -5.7095   28.7455 C   0  0  0  0  0  0  0  0  0  0  0  0
  -29.8261   -5.4283   29.3110 C   0  0  0  0  0  0  0  0  0  0  0  0
  6  7  1  0
  3  8  1  0
  8  9  1  0
  8 10  1  0
  8 11  1  0
  7 12  1  0
 12 13  1  0
  1  2  2  0
  2  3  1  0
  3  4  2  0
  4  5  1  0
  5  6  2  0
  6  1  1  0
 13 14  2  0
 14 15  1  0
 15 16  2  0
 16 17  1  0
 17 18  2  0
 18 13  1  0
M  END

$$$$
