No_4106-gen_results/8p0m/2024-11-27-11-27-31/
     RDKit          3D

 21 22  0  0  0  0  0  0  0  0999 V2000
  -28.0162   -0.8135   28.8779 C   0  0  0  0  0  0  0  0  0  0  0  0
  -27.0636   -0.1189   28.6079 C   0  0  0  0  0  0  0  0  0  0  0  0
  -25.8176   -0.3427   29.0488 N   0  0  0  0  0  0  0  0  0  0  0  0
  -24.6757    0.3814   28.7496 C   0  0  0  0  0  0  0  0  0  0  0  0
  -24.5486    1.0165   27.6444 C   0  0  0  0  0  0  0  0  0  0  0  0
  -27.1297    0.9200   27.5782 C   0  0  0  0  0  0  0  0  0  0  0  0
  -25.8703    1.5315   27.1418 C   0  0  0  0  0  0  0  0  0  0  0  0
  -29.2154   -0.1809   29.1432 N   0  0  0  0  0  0  0  0  0  0  0  0
  -30.2298   -0.8269   29.7514 C   0  0  0  0  0  0  0  0  0  0  0  0
  -23.3830    1.8053   27.3017 C   0  0  0  0  0  0  0  0  0  0  0  0
  -22.4915    2.4893   27.9032 C   0  0  0  0  0  0  0  0  0  0  0  0
  -23.3264    2.0133   25.7432 C   0  0  0  0  0  0  0  0  0  0  0  0
  -22.1428    2.4819   25.1632 C   0  0  0  0  0  0  0  0  0  0  0  0
  -21.3872    1.9737   27.7587 C   0  0  0  0  0  0  0  0  0  0  0  0
  -21.0562    2.3638   26.0622 C   0  0  0  0  0  0  0  0  0  0  0  0
  -25.6652   -1.3889   30.1173 C   0  0  0  0  0  0  0  0  0  0  0  0
  -31.4622   -0.6228   29.2413 C   0  0  0  0  0  0  0  0  0  0  0  0
  -31.9303    0.5267   28.7240 Cl  0  0  0  0  0  0  0  0  0  0  0  0
  -32.3839   -1.2451   30.1072 F   0  0  0  0  0  0  0  0  0  0  0  0
  -29.8097   -2.0100   30.1986 O   0  0  0  0  0  0  0  0  0  0  0  0
  -31.4620   -1.6753   28.2435 F   0  0  0  0  0  0  0  0  0  0  0  0
  1  2  1  0
  2  3  1  0
  3  4  1  0
  2  6  1  0
  5  7  1  0
  1  8  1  0
  8  9  1  0
  5 10  1  0
  3 16  1  0
  9 17  1  0
 17 18  1  0
 17 19  1  0
  9 20  2  0
 17 21  1  0
  6  7  1  0
  5  4  1  0
 10 11  2  0
 11 14  1  0
 14 15  2  0
 15 13  1  0
 13 12  2  0
 12 10  1  0
M  END

$$$$
