No_4748-gen_results/8p0m/2024-11-27-11-27-31/
     RDKit          3D

 27 29  0  0  0  0  0  0  0  0999 V2000
  -28.0162   -0.8135   28.8779 C   0  0  0  0  0  0  0  0  0  0  0  0
  -27.0636   -0.1190   28.6079 C   0  0  0  0  0  0  0  0  0  0  0  0
  -25.7923   -0.4302   29.0761 C   0  0  0  0  0  0  0  0  0  0  0  0
  -24.5456    0.3494   28.8225 C   0  0  0  0  0  0  0  0  0  0  0  0
  -24.6586    1.4196   27.8878 C   0  0  0  0  0  0  0  0  0  0  0  0
  -25.9471    1.6811   27.3792 C   0  0  0  0  0  0  0  0  0  0  0  0
  -27.0439    0.9739   27.6871 C   0  0  0  0  0  0  0  0  0  0  0  0
  -28.0241   -1.6475   30.1263 C   0  0  0  0  0  0  0  0  0  0  0  0
  -26.7278   -2.0846   30.5807 C   0  0  0  0  0  0  0  0  0  0  0  0
  -25.5915   -1.4064   30.1489 C   0  0  0  0  0  0  0  0  0  0  0  0
  -23.4486    2.1675   27.5241 C   0  0  0  0  0  0  0  0  0  0  0  0
  -22.7754    1.9225   26.6315 F   0  0  0  0  0  0  0  0  0  0  0  0
  -23.9025    3.5297   27.3438 F   0  0  0  0  0  0  0  0  0  0  0  0
  -22.7194    2.4501   28.7346 F   0  0  0  0  0  0  0  0  0  0  0  0
  -29.1702   -2.4665   30.5231 C   0  0  0  0  0  0  0  0  0  0  0  0
  -29.1576   -3.6400   30.8632 N   0  0  0  0  0  0  0  0  0  0  0  0
  -30.3013   -1.8444   30.5210 O   0  0  0  0  0  0  0  0  0  0  0  0
  -30.2772   -4.5047   31.2208 C   0  0  0  0  0  0  0  0  0  0  0  0
  -30.0041   -5.4597   31.8684 C   0  0  0  0  0  0  0  0  0  0  0  0
  -30.8258   -6.5948   31.7036 C   0  0  0  0  0  0  0  0  0  0  0  0
  -32.0051   -6.5637   30.9632 C   0  0  0  0  0  0  0  0  0  0  0  0
  -32.2284   -5.4084   30.2298 C   0  0  0  0  0  0  0  0  0  0  0  0
  -31.2709   -4.4313   30.2374 C   0  0  0  0  0  0  0  0  0  0  0  0
  -28.3210    1.3842   27.0195 C   0  0  0  0  0  0  0  0  0  0  0  0
  -29.0421    2.1388   27.4939 O   0  0  0  0  0  0  0  0  0  0  0  0
  -28.5553    0.6590   25.9127 O   0  0  0  0  0  0  0  0  0  0  0  0
  -29.2952    1.1715   24.9060 C   0  0  0  0  0  0  0  0  0  0  0  0
  5 11  1  0
 11 12  1  0
 11 13  1  0
 11 14  1  0
  8 15  1  0
 15 16  1  0
 15 17  2  0
 16 18  1  0
  7 24  1  0
 24 25  2  0
 24 26  1  0
 26 27  1  0
 18 19  2  0
 19 20  1  0
 20 21  2  0
 21 22  1  0
 22 23  2  0
 23 18  1  0
  3  4  1  0
  4  5  2  0
  5  6  1  0
  6  7  2  0
  7  2  1  0
  1  2  2  0
  2  3  1  0
  3 10  2  0
 10  9  1  0
  9  8  2  0
  8  1  1  0
M  END

$$$$
