No_4909-gen_results/8p0m/2024-11-27-11-27-31/
     RDKit          3D

 35 39  0  0  0  0  0  0  0  0999 V2000
  -28.0162   -0.8135   28.8779 C   0  0  0  0  0  0  0  0  0  0  0  0
  -28.4690   -0.7850   29.8287 C   0  0  0  0  0  0  0  0  0  0  0  0
  -26.5042   -0.7777   28.8766 C   0  0  0  0  0  0  0  0  0  0  0  0
  -25.8103   -0.8531   30.1028 C   0  0  0  0  0  0  0  0  0  0  0  0
  -27.9906   -0.8916   31.2257 C   0  0  0  0  0  0  0  0  0  0  0  0
  -26.6042   -0.8676   31.2652 C   0  0  0  0  0  0  0  0  0  0  0  0
  -24.3894   -0.8050   30.1638 C   0  0  0  0  0  0  0  0  0  0  0  0
  -23.7660   -0.9500   31.0679 C   0  0  0  0  0  0  0  0  0  0  0  0
  -24.4866   -1.0287   32.3849 C   0  0  0  0  0  0  0  0  0  0  0  0
  -25.8375   -0.9259   32.4678 C   0  0  0  0  0  0  0  0  0  0  0  0
  -25.7728   -0.7289   27.6951 N   0  0  0  0  0  0  0  0  0  0  0  0
  -26.0475    0.0999   26.6725 C   0  0  0  0  0  0  0  0  0  0  0  0
  -25.6826    1.5006   26.7305 C   0  0  0  0  0  0  0  0  0  0  0  0
  -26.4529    2.4029   26.4179 C   0  0  0  0  0  0  0  0  0  0  0  0
  -26.0039    3.8064   26.4903 C   0  0  0  0  0  0  0  0  0  0  0  0
  -24.6774    4.0699   26.8450 C   0  0  0  0  0  0  0  0  0  0  0  0
  -24.2624    1.7498   27.0916 C   0  0  0  0  0  0  0  0  0  0  0  0
  -23.8257    3.0204   27.1260 C   0  0  0  0  0  0  0  0  0  0  0  0
  -26.5103   -0.3881   25.6068 O   0  0  0  0  0  0  0  0  0  0  0  0
  -30.1235   -0.7740   29.8018 C   0  0  0  0  0  0  0  0  0  0  0  0
  -30.5223   -0.2767   28.8307 O   0  0  0  0  0  0  0  0  0  0  0  0
  -30.7847   -1.1518   30.7642 O   0  0  0  0  0  0  0  0  0  0  0  0
  -26.4265   -0.9545   33.6536 O   0  0  0  0  0  0  0  0  0  0  0  0
  -26.6286    0.2565   34.3709 C   0  0  0  0  0  0  0  0  0  0  0  0
  -28.0051    0.4846   34.5703 C   0  0  0  0  0  0  0  0  0  0  0  0
  -28.4039    1.7269   34.1097 C   0  0  0  0  0  0  0  0  0  0  0  0
  -29.7473    2.0901   33.9898 C   0  0  0  0  0  0  0  0  0  0  0  0
  -27.4920    2.7224   33.5898 C   0  0  0  0  0  0  0  0  0  0  0  0
  -27.8796    3.9302   32.9752 C   0  0  0  0  0  0  0  0  0  0  0  0
  -30.1773    3.3403   33.3604 C   0  0  0  0  0  0  0  0  0  0  0  0
  -29.2343    4.2338   32.9537 C   0  0  0  0  0  0  0  0  0  0  0  0
  -28.2669    0.3912   36.1150 C   0  0  0  0  0  0  0  0  0  0  0  0
  -29.0920   -0.4663   34.2632 C   0  0  0  0  0  0  0  0  0  0  0  0
  -29.0735   -1.5768   35.1060 C   0  0  0  0  0  0  0  0  0  0  0  0
  -28.7081   -0.9140   36.3867 C   0  0  0  0  0  0  0  0  0  0  0  0
  3 11  1  0
 11 12  1  0
 12 13  1  0
 12 19  2  0
  2 20  1  0
 20 21  2  0
 20 22  1  0
 10 23  1  0
 23 24  1  0
 24 25  1  0
 25 26  1  0
 25 32  1  0
 25 33  1  0
 33 34  2  0
 32 35  2  0
 34 35  1  0
  6 10  1  0
 10  9  2  0
  9  8  1  0
  8  7  2  0
  7  4  1  0
 13 14  2  0
 14 15  1  0
 15 16  2  0
 16 18  1  0
 18 17  2  0
 17 13  1  0
 26 27  2  0
 27 30  1  0
 30 31  2  0
 31 29  1  0
 29 28  2  0
 28 26  1  0
  1  2  2  0
  2  5  1  0
  5  6  2  0
  6  4  1  0
  4  3  2  0
  3  1  1  0
M  END

$$$$
