No_4240-gen_results/8p0m/2024-11-27-11-27-31/
     RDKit          3D

 35 39  0  0  0  0  0  0  0  0999 V2000
  -28.0162   -0.8135   28.8779 C   0  0  0  0  0  0  0  0  0  0  0  0
  -28.4690   -0.7850   29.8287 C   0  0  0  0  0  0  0  0  0  0  0  0
  -27.0871    0.2903   28.6377 C   0  0  0  0  0  0  0  0  0  0  0  0
  -26.8317    1.2487   29.5869 C   0  0  0  0  0  0  0  0  0  0  0  0
  -28.3914    0.0801   31.0065 C   0  0  0  0  0  0  0  0  0  0  0  0
  -27.4940    1.1521   30.7841 C   0  0  0  0  0  0  0  0  0  0  0  0
  -26.3172    0.3994   27.3653 C   0  0  0  0  0  0  0  0  0  0  0  0
  -25.0720    0.1570   27.4305 N   0  0  0  0  0  0  0  0  0  0  0  0
  -26.8935    0.6376   26.2796 O   0  0  0  0  0  0  0  0  0  0  0  0
  -24.1818    0.3546   26.2850 C   0  0  0  0  0  0  0  0  0  0  0  0
  -24.3472   -0.2790   28.6064 C   0  0  0  0  0  0  0  0  0  0  0  0
  -23.1684    0.4991   28.9516 C   0  0  0  0  0  0  0  0  0  0  0  0
  -22.3463    0.9413   27.8099 C   0  0  0  0  0  0  0  0  0  0  0  0
  -23.0509    1.1758   26.6161 C   0  0  0  0  0  0  0  0  0  0  0  0
  -21.1283    1.6338   28.1006 C   0  0  0  0  0  0  0  0  0  0  0  0
  -25.9555    2.3810   29.4127 C   0  0  0  0  0  0  0  0  0  0  0  0
  -26.6491    3.7096   29.4223 C   0  0  0  0  0  0  0  0  0  0  0  0
  -25.9324    4.7591   28.9720 C   0  0  0  0  0  0  0  0  0  0  0  0
  -26.3458    5.5694   27.9893 C   0  0  0  0  0  0  0  0  0  0  0  0
  -27.5402    5.5471   27.6547 C   0  0  0  0  0  0  0  0  0  0  0  0
  -28.4607    4.5759   28.1841 C   0  0  0  0  0  0  0  0  0  0  0  0
  -27.8202    3.4992   28.5263 N   0  0  0  0  0  0  0  0  0  0  0  0
  -28.8300    2.6794   29.1144 C   0  0  0  0  0  0  0  0  0  0  0  0
  -29.6896    3.4755   29.9501 C   0  0  0  0  0  0  0  0  0  0  0  0
  -29.6199    4.8577   29.2664 C   0  0  0  0  0  0  0  0  0  0  0  0
  -31.1228    3.0003   30.1378 C   0  0  0  0  0  0  0  0  0  0  0  0
  -29.0345    3.7631   31.3665 C   0  0  0  0  0  0  0  0  0  0  0  0
  -29.8617    3.6350   32.5503 C   0  0  0  0  0  0  0  0  0  0  0  0
  -31.7669    2.6484   28.9897 C   0  0  0  0  0  0  0  0  0  0  0  0
  -31.7340    2.9543   31.3943 C   0  0  0  0  0  0  0  0  0  0  0  0
  -31.0845    3.1835   32.5523 C   0  0  0  0  0  0  0  0  0  0  0  0
  -31.9236    3.0267   28.0350 C   0  0  0  0  0  0  0  0  0  0  0  0
  -29.3871    1.6438   28.4291 C   0  0  0  0  0  0  0  0  0  0  0  0
  -32.5975    2.5210   26.9003 C   0  0  0  0  0  0  0  0  0  0  0  0
  -33.0751    1.2316   27.0661 C   0  0  0  0  0  0  0  0  0  0  0  0
  3  7  1  0
  7  8  1  0
  7  9  2  0
  8 10  1  0
  8 11  1  0
 11 12  1  0
 10 14  1  0
 13 14  1  0
 13 15  1  0
  4 16  1  0
 16 17  1  0
 18 19  1  0
 20 21  1  0
 17 22  1  0
 21 22  1  0
 22 23  1  0
 23 24  1  0
 21 25  1  0
 24 25  1  0
 24 26  1  0
 24 27  1  0
 26 29  1  0
 26 30  1  0
 28 31  1  0
 29 32  2  3
 23 33  1  0
 32 34  1  0
 34 35  2  0
 17 18  1  0
 19 20  1  0
 13 12  1  0
 30 31  1  0
 28 27  1  0
  1  2  2  0
  2  5  1  0
  5  6  2  0
  6  4  1  0
  4  3  2  0
  3  1  1  0
M  END

$$$$
