No_4709-gen_results/8p0m/2024-11-27-11-27-31/
     RDKit          3D

 35 38  0  0  0  0  0  0  0  0999 V2000
  -28.0162   -0.8135   28.8779 C   0  0  0  0  0  0  0  0  0  0  0  0
  -28.4690   -0.7850   29.8287 C   0  0  0  0  0  0  0  0  0  0  0  0
  -26.5455   -0.8762   28.8500 C   0  0  0  0  0  0  0  0  0  0  0  0
  -25.8041   -1.0324   30.0571 C   0  0  0  0  0  0  0  0  0  0  0  0
  -24.3697   -1.0998   30.0718 C   0  0  0  0  0  0  0  0  0  0  0  0
  -27.9902   -1.0051   31.2092 C   0  0  0  0  0  0  0  0  0  0  0  0
  -26.5616   -1.1368   31.2600 C   0  0  0  0  0  0  0  0  0  0  0  0
  -23.7014    0.1528   29.9480 C   0  0  0  0  0  0  0  0  0  0  0  0
  -24.0085    1.2300   30.6175 C   0  0  0  0  0  0  0  0  0  0  0  0
  -22.5966    0.2809   28.9979 C   0  0  0  0  0  0  0  0  0  0  0  0
  -22.1240    1.4483   28.4812 C   0  0  0  0  0  0  0  0  0  0  0  0
  -23.6086    2.5613   30.1675 C   0  0  0  0  0  0  0  0  0  0  0  0
  -22.6101    2.5956   29.1859 N   0  0  0  0  0  0  0  0  0  0  0  0
  -25.7820   -0.7438   27.6910 N   0  0  0  0  0  0  0  0  0  0  0  0
  -25.7028    0.3836   26.8257 C   0  0  0  0  0  0  0  0  0  0  0  0
  -26.2328    1.4052   27.2373 O   0  0  0  0  0  0  0  0  0  0  0  0
  -24.9570    0.3226   25.7909 N   0  0  0  0  0  0  0  0  0  0  0  0
  -21.2626    1.6542   27.5761 N   0  0  0  0  0  0  0  0  0  0  0  0
  -28.8672   -1.1479   32.6326 Cl  0  0  0  0  0  0  0  0  0  0  0  0
  -24.6904    1.4861   24.9267 C   0  0  0  0  0  0  0  0  0  0  0  0
  -23.7869   -2.1750   30.1961 O   0  0  0  0  0  0  0  0  0  0  0  0
  -23.2111    1.6147   24.8995 C   0  0  0  0  0  0  0  0  0  0  0  0
  -22.7443    2.8720   25.5183 C   0  0  0  0  0  0  0  0  0  0  0  0
  -23.9411    3.4704   26.0918 C   0  0  0  0  0  0  0  0  0  0  0  0
  -24.1917    4.6270   26.5663 C   0  0  0  0  0  0  0  0  0  0  0  0
  -25.4317    5.0499   27.2122 C   0  0  0  0  0  0  0  0  0  0  0  0
  -25.1377    2.7409   25.7128 N   0  0  0  0  0  0  0  0  0  0  0  0
  -25.6334    6.2535   27.8375 C   0  0  0  0  0  0  0  0  0  0  0  0
  -24.7243    7.2455   27.5546 C   0  0  0  0  0  0  0  0  0  0  0  0
  -23.6589    7.0783   26.6964 C   0  0  0  0  0  0  0  0  0  0  0  0
  -23.4574    5.8604   26.2588 C   0  0  0  0  0  0  0  0  0  0  0  0
  -25.0127    8.6650   28.1196 C   0  0  0  0  0  0  0  0  0  0  0  0
  -24.0784    9.3027   28.3326 F   0  0  0  0  0  0  0  0  0  0  0  0
  -25.6406    8.4182   29.3667 F   0  0  0  0  0  0  0  0  0  0  0  0
  -25.8353    9.2910   27.2966 F   0  0  0  0  0  0  0  0  0  0  0  0
  4  5  1  0
  5  8  1  0
  3 14  1  0
 14 15  1  0
 15 16  2  0
 15 17  1  0
 11 18  1  0
  6 19  1  0
 17 20  1  0
  5 21  2  0
 20 22  1  0
 22 23  2  0
 23 24  1  0
 24 25  1  0
 20 27  1  0
 24 27  1  0
 29 32  1  0
 32 33  1  0
 32 34  1  0
 32 35  1  0
  1  2  2  0
  2  6  1  0
  6  7  2  0
  7  4  1  0
  4  3  2  0
  3  1  1  0
 25 26  2  0
 26 28  1  0
 28 29  2  0
 29 30  1  0
 30 31  2  0
 31 25  1  0
  8  9  2  0
  9 12  1  0
 12 13  2  0
 13 11  1  0
 11 10  2  0
 10  8  1  0
M  END

$$$$
