No_4013-gen_results/8p0m/2024-11-27-11-27-31/
     RDKit          3D

 15 16  0  0  0  0  0  0  0  0999 V2000
  -28.0544   -1.0498   28.7246 N   0  0  0  0  0  0  0  0  0  0  0  0
  -27.7460   -0.0733   29.0098 C   0  0  0  0  0  0  0  0  0  0  0  0
  -27.5562    0.3369   30.3393 C   0  0  0  0  0  0  0  0  0  0  0  0
  -27.0284    0.6361   28.1280 O   0  0  0  0  0  0  0  0  0  0  0  0
  -28.3245   -0.0424   31.2437 C   0  0  0  0  0  0  0  0  0  0  0  0
  -28.8306   -1.8849   29.7115 C   0  0  0  0  0  0  0  0  0  0  0  0
  -28.9392   -1.3607   31.0518 C   0  0  0  0  0  0  0  0  0  0  0  0
  -26.9165    1.7856   30.5957 C   0  0  0  0  0  0  0  0  0  0  0  0
  -27.3388    3.1572   30.2595 Cl  0  0  0  0  0  0  0  0  0  0  0  0
  -25.5160    1.5879   31.1820 C   0  0  0  0  0  0  0  0  0  0  0  0
  -25.1035    0.7427   31.9151 C   0  0  0  0  0  0  0  0  0  0  0  0
  -23.9006   -0.0966   31.7069 C   0  0  0  0  0  0  0  0  0  0  0  0
  -23.0391    0.3564   30.6860 C   0  0  0  0  0  0  0  0  0  0  0  0
  -23.4478    1.5021   29.9105 C   0  0  0  0  0  0  0  0  0  0  0  0
  -24.6370    1.6801   29.8674 C   0  0  0  0  0  0  0  0  0  0  0  0
  1  2  1  0
  2  3  1  0
  2  4  2  0
  3  5  1  0
  6  7  1  0
  3  8  1  0
  8  9  1  0
  8 10  1  0
  1  6  1  0
  7  5  1  0
 10 11  2  0
 11 12  1  0
 12 13  2  0
 13 14  1  0
 14 15  2  0
 15 10  1  0
M  END

$$$$
