No_4714-gen_results/8p0m/2024-11-27-11-27-31/
     RDKit          3D

 16 16  0  0  0  0  0  0  0  0999 V2000
  -28.0162   -0.8135   28.8779 C   0  0  0  0  0  0  0  0  0  0  0  0
  -27.0636   -0.1189   28.6079 C   0  0  0  0  0  0  0  0  0  0  0  0
  -26.4071    0.8834   28.2425 C   0  0  0  0  0  0  0  0  0  0  0  0
  -25.7321    1.6614   27.7371 C   0  0  0  0  0  0  0  0  0  0  0  0
  -24.3491    1.7345   27.8520 C   0  0  0  0  0  0  0  0  0  0  0  0
  -23.6678    1.4849   29.0579 C   0  0  0  0  0  0  0  0  0  0  0  0
  -22.3426    1.1353   28.9858 N   0  0  0  0  0  0  0  0  0  0  0  0
  -29.1049   -1.2917   29.6266 C   0  0  0  0  0  0  0  0  0  0  0  0
  -29.3046   -0.7876   30.6743 O   0  0  0  0  0  0  0  0  0  0  0  0
  -29.5263   -2.4272   29.4648 O   0  0  0  0  0  0  0  0  0  0  0  0
  -24.2910    1.5188   30.1022 O   0  0  0  0  0  0  0  0  0  0  0  0
  -25.9116    1.0971   29.4226 F   0  0  0  0  0  0  0  0  0  0  0  0
  -23.4484    2.0409   26.6235 C   0  0  0  0  0  0  0  0  0  0  0  0
  -22.0694    1.9164   26.7263 C   0  0  0  0  0  0  0  0  0  0  0  0
  -21.5311    1.5068   27.9905 C   0  0  0  0  0  0  0  0  0  0  0  0
  -26.4556    2.5130   26.7314 C   0  0  0  0  0  0  0  0  0  0  0  0
  1  2  3  0
  2  3  1  0
  3  4  2  3
  4  5  1  0
  5  6  1  0
  6  7  1  0
  1  8  1  0
  8  9  1  0
  8 10  2  0
  6 11  2  0
  3 12  1  0
  5 13  1  0
 14 15  1  0
  4 16  1  0
 13 14  1  0
 15  7  1  0
M  END

$$$$
