No_4113-gen_results/8p0m/2024-11-27-11-27-31/
     RDKit          3D

 30 32  0  0  0  0  0  0  0  0999 V2000
  -28.1229   -1.3353   28.4874 O   0  0  0  0  0  0  0  0  0  0  0  0
  -27.0637   -0.8242   28.8687 C   0  0  0  0  0  0  0  0  0  0  0  0
  -26.4017   -0.0623   28.6224 C   0  0  0  0  0  0  0  0  0  0  0  0
  -26.5721   -1.5845   30.1172 N   0  0  0  0  0  0  0  0  0  0  0  0
  -25.0209    0.3561   29.0444 C   0  0  0  0  0  0  0  0  0  0  0  0
  -24.6646   -0.3860   30.2421 C   0  0  0  0  0  0  0  0  0  0  0  0
  -25.4289   -1.3599   30.6870 C   0  0  0  0  0  0  0  0  0  0  0  0
  -26.7082    0.8260   27.3474 C   0  0  0  0  0  0  0  0  0  0  0  0
  -27.2600    1.9895   27.5888 C   0  0  0  0  0  0  0  0  0  0  0  0
  -26.4829    0.2703   26.0920 C   0  0  0  0  0  0  0  0  0  0  0  0
  -26.9801    0.8597   24.9465 C   0  0  0  0  0  0  0  0  0  0  0  0
  -27.6888    2.7624   26.3911 C   0  0  0  0  0  0  0  0  0  0  0  0
  -27.5555    2.1937   25.0854 C   0  0  0  0  0  0  0  0  0  0  0  0
  -23.3750   -0.0514   30.9296 C   0  0  0  0  0  0  0  0  0  0  0  0
  -23.4148    0.1835   32.1272 O   0  0  0  0  0  0  0  0  0  0  0  0
  -22.2631    0.0033   30.2441 O   0  0  0  0  0  0  0  0  0  0  0  0
  -24.2088    1.4760   28.5965 C   0  0  0  0  0  0  0  0  0  0  0  0
  -23.4907    1.1843   27.4166 C   0  0  0  0  0  0  0  0  0  0  0  0
  -22.5021    2.1643   27.0189 C   0  0  0  0  0  0  0  0  0  0  0  0
  -21.4467    1.9607   26.8370 F   0  0  0  0  0  0  0  0  0  0  0  0
  -22.6733    3.2117   27.9907 F   0  0  0  0  0  0  0  0  0  0  0  0
  -23.0678    2.8287   25.8817 F   0  0  0  0  0  0  0  0  0  0  0  0
  -27.4154    2.7597   28.8273 C   0  0  0  0  0  0  0  0  0  0  0  0
  -28.5347    2.7069   29.4010 C   0  0  0  0  0  0  0  0  0  0  0  0
  -28.7091    3.3429   30.6830 C   0  0  0  0  0  0  0  0  0  0  0  0
  -27.6472    4.0371   31.2459 C   0  0  0  0  0  0  0  0  0  0  0  0
  -26.3221    3.4614   29.3347 C   0  0  0  0  0  0  0  0  0  0  0  0
  -26.4403    4.1468   30.5459 C   0  0  0  0  0  0  0  0  0  0  0  0
  -24.9881    5.0753   31.2979 Br  0  0  0  0  0  0  0  0  0  0  0  0
  -29.9404    1.8505   28.9286 Cl  0  0  0  0  0  0  0  0  0  0  0  0
  1  2  2  0
  2  3  1  0
  2  4  1  0
  5  6  1  0
  6  7  1  0
  3  8  1  0
  6 14  1  0
 14 15  2  0
 14 16  1  0
  5 17  1  0
 17 18  1  0
 18 19  1  0
 19 20  1  0
 19 21  1  0
 19 22  1  0
  9 23  1  0
 28 29  1  0
 24 30  1  0
  3  5  1  0
  7  4  1  0
 23 24  2  0
 24 25  1  0
 25 26  2  0
 26 28  1  0
 28 27  2  0
 27 23  1  0
  8  9  2  0
  9 12  1  0
 12 13  2  0
 13 11  1  0
 11 10  2  0
 10  8  1  0
M  END

$$$$
