No_4451-gen_results/8p0m/2024-11-27-11-27-31/
     RDKit          3D

 13 14  0  0  0  0  0  0  0  0999 V2000
  -28.0162   -0.8135   28.8779 C   0  0  0  0  0  0  0  0  0  0  0  0
  -28.4690   -0.7850   29.8287 C   0  0  0  0  0  0  0  0  0  0  0  0
  -27.1356    0.2359   28.5352 C   0  0  0  0  0  0  0  0  0  0  0  0
  -26.8050    1.0509   29.2763 C   0  0  0  0  0  0  0  0  0  0  0  0
  -27.3158    1.1492   30.6054 C   0  0  0  0  0  0  0  0  0  0  0  0
  -28.1939    0.1246   30.9393 C   0  0  0  0  0  0  0  0  0  0  0  0
  -26.4769    0.2061   27.1262 C   0  0  0  0  0  0  0  0  0  0  0  0
  -25.1066    0.4834   27.0672 C   0  0  0  0  0  0  0  0  0  0  0  0
  -24.4975    1.2119   28.0770 C   0  0  0  0  0  0  0  0  0  0  0  0
  -25.2827    1.4443   29.3078 C   0  0  0  0  0  0  0  0  0  0  0  0
  -23.1932    1.7877   27.8911 C   0  0  0  0  0  0  0  0  0  0  0  0
  -22.6685    2.1449   26.8767 O   0  0  0  0  0  0  0  0  0  0  0  0
  -22.4639    1.9664   29.0293 O   0  0  0  0  0  0  0  0  0  0  0  0
  9 11  1  0
 11 12  2  0
 11 13  1  0
  4 10  2  0
 10  9  1  0
  9  8  2  0
  8  7  1  0
  7  3  2  0
  1  2  2  0
  2  6  1  0
  6  5  2  0
  5  4  1  0
  4  3  1  0
  3  1  1  0
M  END

$$$$
