No_4733-gen_results/8p0m/2024-11-27-11-27-31/
     RDKit          3D

 23 24  0  0  0  0  0  0  0  0999 V2000
  -28.0162   -0.8135   28.8779 C   0  0  0  0  0  0  0  0  0  0  0  0
  -27.0636   -0.1189   28.6079 C   0  0  0  0  0  0  0  0  0  0  0  0
  -25.7923   -0.4302   29.0761 C   0  0  0  0  0  0  0  0  0  0  0  0
  -24.5456    0.3494   28.8225 C   0  0  0  0  0  0  0  0  0  0  0  0
  -23.2409    0.0217   29.3323 C   0  0  0  0  0  0  0  0  0  0  0  0
  -27.8820   -1.8995   29.8633 C   0  0  0  0  0  0  0  0  0  0  0  0
  -26.6526   -2.3142   30.3138 C   0  0  0  0  0  0  0  0  0  0  0  0
  -25.5153   -1.5607   29.9787 C   0  0  0  0  0  0  0  0  0  0  0  0
  -22.1588    0.7866   28.9507 C   0  0  0  0  0  0  0  0  0  0  0  0
  -22.1309    1.7439   27.9818 C   0  0  0  0  0  0  0  0  0  0  0  0
  -24.5165    1.3706   27.7930 C   0  0  0  0  0  0  0  0  0  0  0  0
  -23.3378    2.0353   27.4273 C   0  0  0  0  0  0  0  0  0  0  0  0
  -29.0463   -2.7293   30.2922 C   0  0  0  0  0  0  0  0  0  0  0  0
  -29.2670   -2.6108   31.5306 F   0  0  0  0  0  0  0  0  0  0  0  0
  -28.8354   -4.0376   30.1149 F   0  0  0  0  0  0  0  0  0  0  0  0
  -30.1357   -2.4515   29.6495 F   0  0  0  0  0  0  0  0  0  0  0  0
  -23.5015    3.2259   26.1821 Cl  0  0  0  0  0  0  0  0  0  0  0  0
  -27.1883    0.8802   27.7577 O   0  0  0  0  0  0  0  0  0  0  0  0
  -27.7165    2.0401   28.2429 C   0  0  0  0  0  0  0  0  0  0  0  0
  -27.9231    2.9911   27.2348 C   0  0  0  0  0  0  0  0  0  0  0  0
  -27.7871    2.7188   25.9877 C   0  0  0  0  0  0  0  0  0  0  0  0
  -28.6529    2.0524   25.2803 C   0  0  0  0  0  0  0  0  0  0  0  0
  -28.3712    1.5590   23.9249 C   0  0  0  0  0  0  0  0  0  0  0  0
  3  4  1  0
  6 13  1  0
 13 14  1  0
 13 15  1  0
 13 16  1  0
 12 17  1  0
  2 18  1  0
 18 19  1  0
 19 20  2  3
 20 21  1  0
 21 22  2  3
 22 23  1  0
  1  2  2  0
  2  3  1  0
  3  8  2  0
  8  7  1  0
  7  6  2  0
  6  1  1  0
  4  5  2  0
  5  9  1  0
  9 10  2  0
 10 12  1  0
 12 11  2  0
 11  4  1  0
M  END

$$$$
