No_4228-gen_results/8p0m/2024-11-27-11-27-31/
     RDKit          3D

 35 37  0  0  0  0  0  0  0  0999 V2000
  -28.0162   -0.8135   28.8779 C   0  0  0  0  0  0  0  0  0  0  0  0
  -27.0636   -0.1189   28.6079 C   0  0  0  0  0  0  0  0  0  0  0  0
  -27.0010    0.6913   27.4910 C   0  0  0  0  0  0  0  0  0  0  0  0
  -25.7770    1.0214   26.9135 C   0  0  0  0  0  0  0  0  0  0  0  0
  -24.5088    0.7364   27.5686 C   0  0  0  0  0  0  0  0  0  0  0  0
  -24.5930   -0.0361   28.7390 C   0  0  0  0  0  0  0  0  0  0  0  0
  -25.8114   -0.4771   29.1584 C   0  0  0  0  0  0  0  0  0  0  0  0
  -29.2371   -0.0330   29.2429 C   0  0  0  0  0  0  0  0  0  0  0  0
  -29.2028    0.5415   30.2611 O   0  0  0  0  0  0  0  0  0  0  0  0
  -30.1720   -0.0801   28.3750 O   0  0  0  0  0  0  0  0  0  0  0  0
  -23.2688    1.3354   27.1078 C   0  0  0  0  0  0  0  0  0  0  0  0
  -22.1891    1.2877   27.8724 N   0  0  0  0  0  0  0  0  0  0  0  0
  -23.2271    2.0528   25.9783 N   0  0  0  0  0  0  0  0  0  0  0  0
  -21.0933    1.9262   27.1799 C   0  0  0  0  0  0  0  0  0  0  0  0
  -21.7602    2.3076   26.0518 N   0  0  0  0  0  0  0  0  0  0  0  0
  -25.6900   -1.6077   30.5848 P   0  0  0  0  0  0  0  0  0  0  0  0
  -26.9395   -2.0678   30.8888 O   0  0  0  0  0  0  0  0  0  0  0  0
  -24.5297   -2.4758   30.4054 O   0  0  0  0  0  0  0  0  0  0  0  0
  -25.2903   -0.4055   31.6130 O   0  0  0  0  0  0  0  0  0  0  0  0
  -31.4297    0.2952   28.7434 C   0  0  0  0  0  0  0  0  0  0  0  0
  -32.2204   -0.0422   27.9908 C   0  0  0  0  0  0  0  0  0  0  0  0
  -33.3747    0.1176   28.0405 O   0  0  0  0  0  0  0  0  0  0  0  0
  -31.9676   -0.7902   26.8223 O   0  0  0  0  0  0  0  0  0  0  0  0
  -31.7708   -0.2660   30.1519 C   0  0  0  0  0  0  0  0  0  0  0  0
  -31.3703   -1.3228   30.4112 O   0  0  0  0  0  0  0  0  0  0  0  0
  -31.1772   -0.5134   25.7902 C   0  0  0  0  0  0  0  0  0  0  0  0
  -31.0695    0.5980   25.2267 C   0  0  0  0  0  0  0  0  0  0  0  0
  -30.1392    0.8725   24.2148 C   0  0  0  0  0  0  0  0  0  0  0  0
  -30.5372   -1.5197   25.0251 C   0  0  0  0  0  0  0  0  0  0  0  0
  -29.7652   -1.4100   24.0068 N   0  0  0  0  0  0  0  0  0  0  0  0
  -29.5609   -0.1871   23.5735 C   0  0  0  0  0  0  0  0  0  0  0  0
  -32.4573    0.5215   30.9493 N   0  0  0  0  0  0  0  0  0  0  0  0
  -32.7933    0.4024   32.0431 C   0  0  0  0  0  0  0  0  0  0  0  0
  -33.5045    1.3259   32.6109 C   0  0  0  0  0  0  0  0  0  0  0  0
  -34.0290    1.3812   33.9482 C   0  0  0  0  0  0  0  0  0  0  0  0
  1  2  1  0
  1  8  1  0
  8  9  2  0
  8 10  1  0
  5 11  1  0
 11 12  2  0
 11 13  1  0
 12 14  1  0
 13 15  2  0
 14 15  1  0
  7 16  1  0
 16 17  1  0
 16 18  2  0
 16 19  1  0
 10 20  1  0
 20 21  1  0
 21 22  2  0
 21 23  1  0
 20 24  1  0
 24 25  2  0
 23 26  1  0
 24 32  1  0
 32 33  1  0
 33 34  2  3
 34 35  1  0
  2  3  2  0
  3  4  1  0
  4  5  2  0
  5  6  1  0
  6  7  2  0
  7  2  1  0
 26 27  2  0
 27 28  1  0
 28 31  2  0
 31 30  1  0
 30 29  2  0
 29 26  1  0
M  END

$$$$
