No_423-gen_results/8p0m/2024-11-27-11-27-31/
     RDKit          3D

 28 30  0  0  0  0  0  0  0  0999 V2000
  -28.0162   -0.8135   28.8779 C   0  0  0  0  0  0  0  0  0  0  0  0
  -27.0636   -0.1190   28.6079 C   0  0  0  0  0  0  0  0  0  0  0  0
  -25.7923   -0.4302   29.0761 C   0  0  0  0  0  0  0  0  0  0  0  0
  -25.5756   -1.5654   29.9363 C   0  0  0  0  0  0  0  0  0  0  0  0
  -26.7354   -2.3004   30.2173 C   0  0  0  0  0  0  0  0  0  0  0  0
  -27.9184   -1.9537   29.7629 C   0  0  0  0  0  0  0  0  0  0  0  0
  -29.0001   -2.7012   30.1151 O   0  0  0  0  0  0  0  0  0  0  0  0
  -24.5290    0.3490   28.7998 C   0  0  0  0  0  0  0  0  0  0  0  0
  -24.4808    1.2113   27.7998 C   0  0  0  0  0  0  0  0  0  0  0  0
  -23.2478    1.8974   27.4951 C   0  0  0  0  0  0  0  0  0  0  0  0
  -22.0497    1.5890   28.1642 C   0  0  0  0  0  0  0  0  0  0  0  0
  -23.3072    0.0149   29.4618 C   0  0  0  0  0  0  0  0  0  0  0  0
  -22.0852    0.6899   29.1374 C   0  0  0  0  0  0  0  0  0  0  0  0
  -29.3635   -2.8123   31.4419 C   0  0  0  0  0  0  0  0  0  0  0  0
  -29.7833   -4.1212   31.7495 C   0  0  0  0  0  0  0  0  0  0  0  0
  -29.5089   -5.0210   31.1120 O   0  0  0  0  0  0  0  0  0  0  0  0
  -30.3775   -4.3967   32.8862 O   0  0  0  0  0  0  0  0  0  0  0  0
  -29.2576   -0.5425   28.4506 O   0  0  0  0  0  0  0  0  0  0  0  0
  -29.7717    0.7021   28.5002 C   0  0  0  0  0  0  0  0  0  0  0  0
  -29.9298    1.3615   29.4975 C   0  0  0  0  0  0  0  0  0  0  0  0
  -30.4167    0.9160   30.6235 C   0  0  0  0  0  0  0  0  0  0  0  0
  -30.5642    1.6313   31.8731 C   0  0  0  0  0  0  0  0  0  0  0  0
  -30.9924    1.0554   33.0867 C   0  0  0  0  0  0  0  0  0  0  0  0
  -31.3761   -0.3163   33.0248 C   0  0  0  0  0  0  0  0  0  0  0  0
  -31.3293   -1.0172   31.8586 C   0  0  0  0  0  0  0  0  0  0  0  0
  -30.8165   -0.4473   30.7397 C   0  0  0  0  0  0  0  0  0  0  0  0
  -30.2948    1.0555   27.1616 C   0  0  0  0  0  0  0  0  0  0  0  0
  -30.4181    1.8942   26.5715 Cl  0  0  0  0  0  0  0  0  0  0  0  0
  6  7  1  0
  3  8  1  0
  7 14  1  0
 14 15  1  0
 15 16  2  0
 15 17  1  0
  1 18  1  0
 18 19  1  0
 19 20  1  0
 19 27  1  0
 27 28  1  0
 20 21  1  0
  1  2  2  0
  2  3  1  0
  3  4  2  0
  4  5  1  0
  5  6  2  0
  6  1  1  0
 21 22  2  0
 22 23  1  0
 23 24  2  0
 24 25  1  0
 25 26  2  0
 26 21  1  0
  8  9  2  0
  9 10  1  0
 10 11  2  0
 11 13  1  0
 13 12  2  0
 12  8  1  0
M  END

$$$$
