No_4556-gen_results/8p0m/2024-11-27-11-27-31/
     RDKit          3D

 24 26  0  0  0  0  0  0  0  0999 V2000
  -28.0544   -1.0498   28.7246 N   0  0  0  0  0  0  0  0  0  0  0  0
  -28.6544   -0.5669   29.5076 C   0  0  0  0  0  0  0  0  0  0  0  0
  -26.7777   -0.5807   28.6029 C   0  0  0  0  0  0  0  0  0  0  0  0
  -26.3876    0.2737   29.0791 C   0  0  0  0  0  0  0  0  0  0  0  0
  -30.0373   -1.0422   29.7575 N   0  0  0  0  0  0  0  0  0  0  0  0
  -28.3229    0.5237   30.3593 C   0  0  0  0  0  0  0  0  0  0  0  0
  -27.0555    1.0041   30.1369 C   0  0  0  0  0  0  0  0  0  0  0  0
  -30.7573   -0.6813   30.8167 C   0  0  0  0  0  0  0  0  0  0  0  0
  -30.3798    0.4017   31.5338 C   0  0  0  0  0  0  0  0  0  0  0  0
  -29.1612    1.0162   31.4029 C   0  0  0  0  0  0  0  0  0  0  0  0
  -24.8743    0.8361   28.8542 C   0  0  0  0  0  0  0  0  0  0  0  0
  -24.0062    0.2831   28.8475 O   0  0  0  0  0  0  0  0  0  0  0  0
  -24.7403    2.2536   28.8277 N   0  0  0  0  0  0  0  0  0  0  0  0
  -23.4826    2.8490   28.5221 C   0  0  0  0  0  0  0  0  0  0  0  0
  -25.8261    3.2166   28.8581 C   0  0  0  0  0  0  0  0  0  0  0  0
  -25.8307    4.0266   27.7068 C   0  0  0  0  0  0  0  0  0  0  0  0
  -24.5581    4.6270   27.2757 C   0  0  0  0  0  0  0  0  0  0  0  0
  -23.4800    3.8023   27.4574 N   0  0  0  0  0  0  0  0  0  0  0  0
  -31.9751   -1.2776   30.9022 N   0  0  0  0  0  0  0  0  0  0  0  0
  -32.5110   -2.1363   30.6833 C   0  0  0  0  0  0  0  0  0  0  0  0
  -31.7945   -3.2926   30.5307 C   0  0  0  0  0  0  0  0  0  0  0  0
  -31.2924   -3.7260   29.6765 C   0  0  0  0  0  0  0  0  0  0  0  0
  -30.4254   -4.9720   29.5269 C   0  0  0  0  0  0  0  0  0  0  0  0
  -29.8253   -5.3303   28.4141 N   0  0  0  0  0  0  0  0  0  0  0  0
  4 11  1  0
 11 12  2  0
 11 13  1  0
 13 14  1  0
 13 15  1  0
 16 17  1  0
 14 18  1  0
  8 19  1  0
 19 20  1  0
 20 21  2  3
 21 22  1  0
 22 23  1  0
 23 24  1  0
 18 17  1  0
 16 15  1  0
  1  2  2  0
  6  7  2  0
  7  4  1  0
  4  3  2  0
  3  1  1  0
  2  5  1  0
  5  8  2  0
  8  9  1  0
  9 10  2  0
 10  6  1  0
  6  2  1  0
M  END

$$$$
