No_485-gen_results/8p0m/2024-11-27-11-27-31/
     RDKit          3D

 12 12  0  0  0  0  0  0  0  0999 V2000
  -28.0162   -0.8135   28.8779 C   0  0  0  0  0  0  0  0  0  0  0  0
  -28.4690   -0.7850   29.8287 C   0  0  0  0  0  0  0  0  0  0  0  0
  -27.0871    0.2903   28.6377 C   0  0  0  0  0  0  0  0  0  0  0  0
  -26.0238    0.3644   29.2526 C   0  0  0  0  0  0  0  0  0  0  0  0
  -26.2460    0.4334   30.7986 C   0  0  0  0  0  0  0  0  0  0  0  0
  -29.5736   -1.6268   30.3318 C   0  0  0  0  0  0  0  0  0  0  0  0
  -27.2885   -0.6712   31.0920 C   0  0  0  0  0  0  0  0  0  0  0  0
  -30.6988   -1.2594   29.8612 N   0  0  0  0  0  0  0  0  0  0  0  0
  -31.7307   -1.0828   30.4562 C   0  0  0  0  0  0  0  0  0  0  0  0
  -31.8460    0.1047   31.1099 C   0  0  0  0  0  0  0  0  0  0  0  0
  -32.9784    0.1633   31.8256 F   0  0  0  0  0  0  0  0  0  0  0  0
  -30.8649    0.1209   32.0102 F   0  0  0  0  0  0  0  0  0  0  0  0
  1  2  1  0
  1  3  1  0
  3  4  1  0
  4  5  1  0
  2  6  1  0
  2  7  1  0
  5  7  1  0
  6  8  1  0
  8  9  1  0
  9 10  2  3
 10 11  1  0
 10 12  1  0
M  END

$$$$
