No_4337-gen_results/8p0m/2024-11-27-11-27-31/
     RDKit          3D

 35 36  0  0  0  0  0  0  0  0999 V2000
  -28.0162   -0.8135   28.8779 C   0  0  0  0  0  0  0  0  0  0  0  0
  -28.4690   -0.7850   29.8287 C   0  0  0  0  0  0  0  0  0  0  0  0
  -26.5042   -0.7777   28.8766 C   0  0  0  0  0  0  0  0  0  0  0  0
  -25.9500    0.1157   29.4052 C   0  0  0  0  0  0  0  0  0  0  0  0
  -29.9626   -0.8611   29.9061 C   0  0  0  0  0  0  0  0  0  0  0  0
  -24.4666    0.2794   29.3703 C   0  0  0  0  0  0  0  0  0  0  0  0
  -23.8872    1.5261   29.2774 C   0  0  0  0  0  0  0  0  0  0  0  0
  -24.1831    2.1362   28.1843 C   0  0  0  0  0  0  0  0  0  0  0  0
  -23.0969    2.4607   27.4808 F   0  0  0  0  0  0  0  0  0  0  0  0
  -24.7758    3.4395   28.3880 F   0  0  0  0  0  0  0  0  0  0  0  0
  -25.0500    1.4674   27.3754 F   0  0  0  0  0  0  0  0  0  0  0  0
  -30.6164   -1.4413   30.9399 C   0  0  0  0  0  0  0  0  0  0  0  0
  -29.9430   -1.5714   32.1391 C   0  0  0  0  0  0  0  0  0  0  0  0
  -28.5711   -1.4389   32.2286 C   0  0  0  0  0  0  0  0  0  0  0  0
  -27.8543   -1.1518   31.1092 C   0  0  0  0  0  0  0  0  0  0  0  0
  -22.6084    1.6192   29.6485 F   0  0  0  0  0  0  0  0  0  0  0  0
  -24.4625    2.2297   30.4975 F   0  0  0  0  0  0  0  0  0  0  0  0
  -30.6036   -0.6961   28.7729 O   0  0  0  0  0  0  0  0  0  0  0  0
  -31.2688    0.4678   28.5339 C   0  0  0  0  0  0  0  0  0  0  0  0
  -31.6003    1.1973   29.2617 C   0  0  0  0  0  0  0  0  0  0  0  0
  -31.7264    0.5161   27.0872 C   0  0  0  0  0  0  0  0  0  0  0  0
  -32.3228    2.4130   29.0235 C   0  0  0  0  0  0  0  0  0  0  0  0
  -32.4503    1.6567   26.7523 C   0  0  0  0  0  0  0  0  0  0  0  0
  -32.7855    2.6002   27.7132 C   0  0  0  0  0  0  0  0  0  0  0  0
  -23.9246   -0.6007   30.5430 N   0  0  0  0  0  0  0  0  0  0  0  0
  -23.9605   -0.3415   31.6171 C   0  0  0  0  0  0  0  0  0  0  0  0
  -23.3710   -1.8494   30.0269 C   0  0  0  0  0  0  0  0  0  0  0  0
  -31.3744   -0.4537   26.0981 C   0  0  0  0  0  0  0  0  0  0  0  0
  -31.7615   -0.4617   25.1757 O   0  0  0  0  0  0  0  0  0  0  0  0
  -30.5062   -1.4096   26.4796 O   0  0  0  0  0  0  0  0  0  0  0  0
  -30.7487   -1.9666   33.3533 C   0  0  0  0  0  0  0  0  0  0  0  0
  -31.0187   -0.9889   34.2160 C   0  0  0  0  0  0  0  0  0  0  0  0
  -31.7835   -1.2763   35.2868 C   0  0  0  0  0  0  0  0  0  0  0  0
  -31.8205   -2.8880   33.0200 C   0  0  0  0  0  0  0  0  0  0  0  0
  -32.5930   -3.2955   34.2314 C   0  0  0  0  0  0  0  0  0  0  0  0
  1  2  1  0
  1  3  1  0
  3  4  1  0
  4  6  2  3
  6  7  1  0
  7  8  1  0
  8  9  1  0
  8 10  1  0
  8 11  1  0
  7 16  1  0
  7 17  1  0
  5 18  1  0
 18 19  1  0
  6 25  1  0
 25 26  1  0
 25 27  1  0
 21 28  1  0
 28 29  2  0
 28 30  1  0
 13 31  1  0
 31 32  1  0
 32 33  2  0
 31 34  1  0
 34 35  2  0
 19 20  2  0
 20 22  1  0
 22 24  2  0
 24 23  1  0
 23 21  2  0
 21 19  1  0
  2  5  2  0
  5 12  1  0
 12 13  2  0
 13 14  1  0
 14 15  2  0
 15  2  1  0
M  END

$$$$
