No_4252-gen_results/8p0m/2024-11-27-11-27-31/
     RDKit          3D

 17 18  0  0  0  0  0  0  0  0999 V2000
  -28.0162   -0.8135   28.8779 C   0  0  0  0  0  0  0  0  0  0  0  0
  -28.4690   -0.7850   29.8287 C   0  0  0  0  0  0  0  0  0  0  0  0
  -28.3026    0.2475   28.0344 N   0  0  0  0  0  0  0  0  0  0  0  0
  -29.2571    1.0076   28.4936 C   0  0  0  0  0  0  0  0  0  0  0  0
  -29.4975   -0.0676   30.4448 C   0  0  0  0  0  0  0  0  0  0  0  0
  -29.8300    0.9717   29.6047 N   0  0  0  0  0  0  0  0  0  0  0  0
  -29.5772    2.1490   27.4767 C   0  0  0  0  0  0  0  0  0  0  0  0
  -29.5759    3.2760   27.7088 C   0  0  0  0  0  0  0  0  0  0  0  0
  -29.5166    4.3328   27.4587 C   0  0  0  0  0  0  0  0  0  0  0  0
  -29.2172    5.7227   27.3779 C   0  0  0  0  0  0  0  0  0  0  0  0
  -29.9684    1.5465   26.1803 C   0  0  0  0  0  0  0  0  0  0  0  0
  -30.0453    2.4942   25.1507 C   0  0  0  0  0  0  0  0  0  0  0  0
  -29.2558    6.9433   26.7021 C   0  0  0  0  0  0  0  0  0  0  0  0
  -29.0415    8.1605   26.5754 C   0  0  0  0  0  0  0  0  0  0  0  0
  -28.2552    8.4811   27.6460 C   0  0  0  0  0  0  0  0  0  0  0  0
  -27.8768    7.6012   28.6407 C   0  0  0  0  0  0  0  0  0  0  0  0
  -28.2809    6.2705   28.4947 C   0  0  0  0  0  0  0  0  0  0  0  0
  4  7  1  0
  7  8  2  3
  8  9  1  0
  9 10  2  3
  7 11  1  0
 11 12  2  0
 10 13  1  0
 13 14  1  0
 14 15  1  0
 15 16  1  0
 10 17  1  0
 16 17  1  0
  1  2  2  0
  2  5  1  0
  5  6  2  0
  6  4  1  0
  4  3  2  0
  3  1  1  0
M  END

$$$$
