No_4422-gen_results/8p0m/2024-11-27-11-27-31/
     RDKit          3D

 19 20  0  0  0  0  0  0  0  0999 V2000
  -28.0162   -0.8135   28.8779 C   0  0  0  0  0  0  0  0  0  0  0  0
  -28.4690   -0.7850   29.8287 C   0  0  0  0  0  0  0  0  0  0  0  0
  -26.5455   -0.8762   28.8500 C   0  0  0  0  0  0  0  0  0  0  0  0
  -25.6825   -0.7773   27.6829 C   0  0  0  0  0  0  0  0  0  0  0  0
  -27.9181   -1.0034   31.1877 C   0  0  0  0  0  0  0  0  0  0  0  0
  -26.5308   -1.0794   31.2463 C   0  0  0  0  0  0  0  0  0  0  0  0
  -25.7798   -1.0462   30.0905 C   0  0  0  0  0  0  0  0  0  0  0  0
  -24.3676   -0.2501   27.7917 C   0  0  0  0  0  0  0  0  0  0  0  0
  -23.6867    0.3939   26.8482 C   0  0  0  0  0  0  0  0  0  0  0  0
  -24.3889    1.2831   25.9356 C   0  0  0  0  0  0  0  0  0  0  0  0
  -23.5051   -0.8029   28.8879 C   0  0  0  0  0  0  0  0  0  0  0  0
  -24.3233   -0.9803   30.0902 C   0  0  0  0  0  0  0  0  0  0  0  0
  -30.0660   -0.7428   29.8921 C   0  0  0  0  0  0  0  0  0  0  0  0
  -30.6426   -0.0309   29.2081 O   0  0  0  0  0  0  0  0  0  0  0  0
  -30.6973   -1.5186   30.7391 O   0  0  0  0  0  0  0  0  0  0  0  0
  -25.0638    2.3878   26.4090 C   0  0  0  0  0  0  0  0  0  0  0  0
  -24.2953    3.4464   26.8911 C   0  0  0  0  0  0  0  0  0  0  0  0
  -24.9301    4.6567   27.3741 C   0  0  0  0  0  0  0  0  0  0  0  0
  -24.2954    5.6959   27.8444 C   0  0  0  0  0  0  0  0  0  0  0  0
  8  9  1  0
  9 10  1  0
  2 13  1  0
 13 14  2  0
 13 15  1  0
 10 16  1  0
 16 17  2  3
 17 18  1  0
 18 19  2  0
  1  2  2  0
  2  5  1  0
  5  6  2  0
  6  7  1  0
  3  1  1  0
  3  4  2  0
  4  8  1  0
  8 11  2  0
 11 12  1  0
 12  7  2  0
  7  3  1  0
M  END

$$$$
