No_4452-gen_results/8p0m/2024-11-27-11-27-31/
     RDKit          3D

 31 33  0  0  0  0  0  0  0  0999 V2000
  -28.1493   -0.8198   28.9079 Cl  0  0  0  0  0  0  0  0  0  0  0  0
  -26.9116   -0.0797   28.9452 C   0  0  0  0  0  0  0  0  0  0  0  0
  -26.2828   -0.1883   27.9884 F   0  0  0  0  0  0  0  0  0  0  0  0
  -27.0730    1.3873   29.2747 C   0  0  0  0  0  0  0  0  0  0  0  0
  -26.1157   -0.5446   29.9859 F   0  0  0  0  0  0  0  0  0  0  0  0
  -27.2500    1.8081   30.4548 C   0  0  0  0  0  0  0  0  0  0  0  0
  -27.2017    2.2211   28.1586 C   0  0  0  0  0  0  0  0  0  0  0  0
  -27.5127    3.1958   30.7904 C   0  0  0  0  0  0  0  0  0  0  0  0
  -27.4067    3.6801   28.4171 C   0  0  0  0  0  0  0  0  0  0  0  0
  -27.5243    4.1349   29.7492 C   0  0  0  0  0  0  0  0  0  0  0  0
  -27.6977    5.5589   30.0147 C   0  0  0  0  0  0  0  0  0  0  0  0
  -28.0125    6.3382   29.3581 O   0  0  0  0  0  0  0  0  0  0  0  0
  -27.2867    5.8574   31.3163 O   0  0  0  0  0  0  0  0  0  0  0  0
  -26.8195    7.0336   31.6283 C   0  0  0  0  0  0  0  0  0  0  0  0
  -25.7076    7.3649   31.0560 C   0  0  0  0  0  0  0  0  0  0  0  0
  -24.7853    7.9196   31.7360 C   0  0  0  0  0  0  0  0  0  0  0  0
  -23.4443    8.2346   31.1789 C   0  0  0  0  0  0  0  0  0  0  0  0
  -23.2505    8.7547   30.3313 C   0  0  0  0  0  0  0  0  0  0  0  0
  -24.3940    8.5474   29.2189 C   0  0  0  0  0  0  0  0  0  0  0  0
  -25.5902    7.8661   29.6129 C   0  0  0  0  0  0  0  0  0  0  0  0
  -24.1741    8.8888   27.7968 C   0  0  0  0  0  0  0  0  0  0  0  0
  -24.5974    9.8566   27.4523 F   0  0  0  0  0  0  0  0  0  0  0  0
  -22.8295    8.7647   27.5783 F   0  0  0  0  0  0  0  0  0  0  0  0
  -24.8513    7.8427   27.0951 F   0  0  0  0  0  0  0  0  0  0  0  0
  -27.5228    7.6125   32.4929 O   0  0  0  0  0  0  0  0  0  0  0  0
  -22.3339    8.4767   32.2464 C   0  0  0  0  0  0  0  0  0  0  0  0
  -22.1025    7.4727   33.2241 C   0  0  0  0  0  0  0  0  0  0  0  0
  -20.9626    7.4643   34.0630 C   0  0  0  0  0  0  0  0  0  0  0  0
  -20.1098    8.5226   34.0305 C   0  0  0  0  0  0  0  0  0  0  0  0
  -21.3659    9.4966   32.1156 C   0  0  0  0  0  0  0  0  0  0  0  0
  -20.2771    9.5274   33.0293 C   0  0  0  0  0  0  0  0  0  0  0  0
  1  2  1  0
  2  3  1  0
  2  4  1  0
  2  5  1  0
 10 11  1  0
 11 12  2  0
 11 13  1  0
 13 14  1  0
 14 15  1  0
 19 21  1  0
 21 22  1  0
 21 23  1  0
 21 24  1  0
 14 25  2  0
 17 26  1  0
 15 16  2  0
 16 17  1  0
 17 18  2  0
 18 19  1  0
 19 20  2  0
 20 15  1  0
 26 27  2  0
 27 28  1  0
 28 29  2  0
 29 31  1  0
 31 30  2  0
 30 26  1  0
  4  6  2  0
  6  8  1  0
  8 10  2  0
 10  9  1  0
  9  7  2  0
  7  4  1  0
M  END

$$$$
