No_4103-gen_results/8p0m/2024-11-27-11-27-31/
     RDKit          3D

 21 22  0  0  0  0  0  0  0  0999 V2000
  -28.0162   -0.8135   28.8779 C   0  0  0  0  0  0  0  0  0  0  0  0
  -28.4690   -0.7850   29.8287 C   0  0  0  0  0  0  0  0  0  0  0  0
  -26.5042   -0.7777   28.8766 C   0  0  0  0  0  0  0  0  0  0  0  0
  -25.8103   -0.8531   30.1028 C   0  0  0  0  0  0  0  0  0  0  0  0
  -27.9906   -0.8916   31.2257 C   0  0  0  0  0  0  0  0  0  0  0  0
  -26.6042   -0.8676   31.2652 C   0  0  0  0  0  0  0  0  0  0  0  0
  -24.3894   -0.8049   30.1638 C   0  0  0  0  0  0  0  0  0  0  0  0
  -23.6350   -0.8621   29.1472 C   0  0  0  0  0  0  0  0  0  0  0  0
  -22.1747   -0.6734   29.2132 C   0  0  0  0  0  0  0  0  0  0  0  0
  -23.9416   -1.6823   31.3530 C   0  0  0  0  0  0  0  0  0  0  0  0
  -23.3032   -0.9109   32.3304 C   0  0  0  0  0  0  0  0  0  0  0  0
  -30.0738   -0.6503   29.6464 C   0  0  0  0  0  0  0  0  0  0  0  0
  -30.7463    0.0598   28.5940 Cl  0  0  0  0  0  0  0  0  0  0  0  0
  -30.7956   -1.2712   30.6347 F   0  0  0  0  0  0  0  0  0  0  0  0
  -21.6382    0.5993   28.6381 C   0  0  0  0  0  0  0  0  0  0  0  0
  -22.5501    1.6745   28.4746 C   0  0  0  0  0  0  0  0  0  0  0  0
  -22.7097    2.2152   27.2498 N   0  0  0  0  0  0  0  0  0  0  0  0
  -23.9099    2.8201   26.8624 C   0  0  0  0  0  0  0  0  0  0  0  0
  -24.7403    3.1990   27.8203 C   0  0  0  0  0  0  0  0  0  0  0  0
  -24.7489    2.5072   29.0603 C   0  0  0  0  0  0  0  0  0  0  0  0
  -23.6305    1.7369   29.4248 C   0  0  0  0  0  0  0  0  0  0  0  0
  4  7  1  0
  7  8  2  3
  8  9  1  0
  7 10  1  0
 10 11  1  0
  2 12  1  0
 12 13  1  0
 12 14  1  0
  9 15  1  0
 15 16  1  0
  1  2  2  0
  2  5  1  0
  5  6  2  0
  6  4  1  0
  4  3  2  0
  3  1  1  0
 16 17  2  0
 17 18  1  0
 18 19  2  0
 19 20  1  0
 20 21  2  0
 21 16  1  0
M  END

$$$$
