No_416-gen_results/8p0m/2024-11-27-11-27-31/
     RDKit          3D

 17 18  0  0  0  0  0  0  0  0999 V2000
  -28.0162   -0.8135   28.8779 C   0  0  0  0  0  0  0  0  0  0  0  0
  -28.4690   -0.7850   29.8287 C   0  0  0  0  0  0  0  0  0  0  0  0
  -27.1356    0.2359   28.5352 C   0  0  0  0  0  0  0  0  0  0  0  0
  -26.8050    1.0509   29.2763 C   0  0  0  0  0  0  0  0  0  0  0  0
  -27.3158    1.1492   30.6054 C   0  0  0  0  0  0  0  0  0  0  0  0
  -28.1917    0.1430   30.9488 C   0  0  0  0  0  0  0  0  0  0  0  0
  -26.4831    0.2096   27.1281 C   0  0  0  0  0  0  0  0  0  0  0  0
  -27.0196    0.6489   26.1370 C   0  0  0  0  0  0  0  0  0  0  0  0
  -28.2580    1.2772   26.2019 C   0  0  0  0  0  0  0  0  0  0  0  0
  -29.2021    1.0287   25.9055 C   0  0  0  0  0  0  0  0  0  0  0  0
  -30.4332    1.8453   25.9601 C   0  0  0  0  0  0  0  0  0  0  0  0
  -30.2551    3.1353   26.4965 C   0  0  0  0  0  0  0  0  0  0  0  0
  -27.9821    2.7822   26.6412 C   0  0  0  0  0  0  0  0  0  0  0  0
  -26.5808    3.3217   26.8596 C   0  0  0  0  0  0  0  0  0  0  0  0
  -29.0256    3.6918   26.7178 C   0  0  0  0  0  0  0  0  0  0  0  0
  -25.1673   -0.4762   27.1602 C   0  0  0  0  0  0  0  0  0  0  0  0
  -26.5582    0.3433   24.8215 C   0  0  0  0  0  0  0  0  0  0  0  0
  3  7  1  0
  7  8  1  0
  8  9  1  0
 13 14  1  0
  7 16  1  0
  8 17  1  0
  9 10  2  0
 10 11  1  0
 11 12  2  0
 12 15  1  0
 15 13  2  0
 13  9  1  0
  1  2  2  0
  2  6  1  0
  6  5  2  0
  5  4  1  0
  4  3  2  0
  3  1  1  0
M  END

$$$$
