No_4822-gen_results/8p0m/2024-11-27-11-27-31/
     RDKit          3D

  9  8  0  0  0  0  0  0  0  0999 V2000
  -28.0162   -0.8135   28.8779 C   0  0  0  0  0  0  0  0  0  0  0  0
  -27.0636   -0.1189   28.6079 C   0  0  0  0  0  0  0  0  0  0  0  0
  -26.4071    0.8834   28.2425 C   0  0  0  0  0  0  0  0  0  0  0  0
  -25.7321    1.6614   27.7371 C   0  0  0  0  0  0  0  0  0  0  0  0
  -24.7755    2.4560   27.9134 C   0  0  0  0  0  0  0  0  0  0  0  0
  -23.6513    2.4091   28.5056 C   0  0  0  0  0  0  0  0  0  0  0  0
  -27.8327   -1.7124   29.9291 C   0  0  0  0  0  0  0  0  0  0  0  0
  -26.8753   -2.1192   30.3466 C   0  0  0  0  0  0  0  0  0  0  0  0
  -25.5507   -1.7019   30.0055 C   0  0  0  0  0  0  0  0  0  0  0  0
  1  2  3  0
  2  3  1  0
  3  4  1  0
  4  5  1  0
  5  6  2  0
  1  7  1  0
  7  8  2  3
  8  9  1  0
M  END

$$$$
