No_4437-gen_results/8p0m/2024-11-27-11-27-31/
     RDKit          3D

 22 23  0  0  0  0  0  0  0  0999 V2000
  -28.0162   -0.8135   28.8779 C   0  0  0  0  0  0  0  0  0  0  0  0
  -27.0636   -0.1189   28.6079 C   0  0  0  0  0  0  0  0  0  0  0  0
  -25.7647   -0.3897   29.0360 C   0  0  0  0  0  0  0  0  0  0  0  0
  -25.5296   -1.5302   29.9014 C   0  0  0  0  0  0  0  0  0  0  0  0
  -26.6888   -2.2893   30.1810 C   0  0  0  0  0  0  0  0  0  0  0  0
  -27.8727   -1.9508   29.7373 C   0  0  0  0  0  0  0  0  0  0  0  0
  -28.8984   -2.7212   30.0727 F   0  0  0  0  0  0  0  0  0  0  0  0
  -24.5420    0.4303   28.7469 C   0  0  0  0  0  0  0  0  0  0  0  0
  -24.5385    1.2872   27.7172 C   0  0  0  0  0  0  0  0  0  0  0  0
  -23.3354    2.0020   27.3968 C   0  0  0  0  0  0  0  0  0  0  0  0
  -22.1435    1.7581   28.0423 C   0  0  0  0  0  0  0  0  0  0  0  0
  -23.4034    0.3545   29.5982 C   0  0  0  0  0  0  0  0  0  0  0  0
  -22.1599    0.9513   29.1544 C   0  0  0  0  0  0  0  0  0  0  0  0
  -23.3530    2.8096   26.2853 O   0  0  0  0  0  0  0  0  0  0  0  0
  -24.5973    3.0605   25.7552 C   0  0  0  0  0  0  0  0  0  0  0  0
  -27.1788    0.9758   27.7508 O   0  0  0  0  0  0  0  0  0  0  0  0
  -28.4558    1.2794   27.3862 C   0  0  0  0  0  0  0  0  0  0  0  0
  -29.1323    2.2325   28.1033 C   0  0  0  0  0  0  0  0  0  0  0  0
  -28.4161    2.9649   28.8266 F   0  0  0  0  0  0  0  0  0  0  0  0
  -29.8474    3.0415   27.2921 F   0  0  0  0  0  0  0  0  0  0  0  0
  -30.0855    1.6173   28.9123 F   0  0  0  0  0  0  0  0  0  0  0  0
  -28.7897    0.7638   26.2833 O   0  0  0  0  0  0  0  0  0  0  0  0
  6  7  1  0
  3  8  1  0
 10 14  1  0
 14 15  1  0
  2 16  1  0
 16 17  1  0
 17 18  1  0
 18 19  1  0
 18 20  1  0
 18 21  1  0
 17 22  2  0
  1  2  2  0
  2  3  1  0
  3  4  2  0
  4  5  1  0
  5  6  2  0
  6  1  1  0
  8  9  2  0
  9 10  1  0
 10 11  2  0
 11 13  1  0
 13 12  2  0
 12  8  1  0
M  END

$$$$
