No_4431-gen_results/8p0m/2024-11-27-11-27-31/
     RDKit          3D

 15 16  0  0  0  0  0  0  0  0999 V2000
  -28.0162   -0.8135   28.8779 C   0  0  0  0  0  0  0  0  0  0  0  0
  -28.4690   -0.7850   29.8287 C   0  0  0  0  0  0  0  0  0  0  0  0
  -28.1960    0.3478   28.0550 C   0  0  0  0  0  0  0  0  0  0  0  0
  -29.0191    1.3501   28.3782 C   0  0  0  0  0  0  0  0  0  0  0  0
  -29.6249    1.2683   29.6012 C   0  0  0  0  0  0  0  0  0  0  0  0
  -29.3791    0.1469   30.3923 C   0  0  0  0  0  0  0  0  0  0  0  0
  -27.5461    0.5105   26.6832 C   0  0  0  0  0  0  0  0  0  0  0  0
  -26.1248    0.4946   26.6987 C   0  0  0  0  0  0  0  0  0  0  0  0
  -25.3757    0.1389   27.7588 C   0  0  0  0  0  0  0  0  0  0  0  0
  -24.0596    0.4124   27.9339 C   0  0  0  0  0  0  0  0  0  0  0  0
  -23.2568   -0.0186   29.0690 C   0  0  0  0  0  0  0  0  0  0  0  0
  -23.7910   -1.0796   29.7956 C   0  0  0  0  0  0  0  0  0  0  0  0
  -25.0652   -1.4762   29.6083 C   0  0  0  0  0  0  0  0  0  0  0  0
  -25.8248   -0.9675   28.6267 C   0  0  0  0  0  0  0  0  0  0  0  0
  -25.9949   -2.0237   27.8466 F   0  0  0  0  0  0  0  0  0  0  0  0
  3  7  1  0
  7  8  1  0
 14 15  1  0
  8  9  1  0
  1  2  2  0
  2  6  1  0
  6  5  2  0
  5  4  1  0
  4  3  2  0
  3  1  1  0
  9 10  2  0
 10 11  1  0
 11 12  2  0
 12 13  1  0
 13 14  2  0
 14  9  1  0
M  END

$$$$
