No_4874-gen_results/8p0m/2024-11-27-11-27-31/
     RDKit          3D

 15 15  0  0  0  0  0  0  0  0999 V2000
  -28.0162   -0.8135   28.8779 C   0  0  0  0  0  0  0  0  0  0  0  0
  -28.4690   -0.7850   29.8287 C   0  0  0  0  0  0  0  0  0  0  0  0
  -27.0871    0.2903   28.6377 C   0  0  0  0  0  0  0  0  0  0  0  0
  -26.7676    1.0274   29.4716 C   0  0  0  0  0  0  0  0  0  0  0  0
  -28.2764    0.0268   31.0145 C   0  0  0  0  0  0  0  0  0  0  0  0
  -27.3287    1.0538   30.7535 C   0  0  0  0  0  0  0  0  0  0  0  0
  -25.4909    2.4506   29.1759 Br  0  0  0  0  0  0  0  0  0  0  0  0
  -29.5158   -1.9951   30.2587 C   0  0  0  0  0  0  0  0  0  0  0  0
  -29.9498   -1.8903   31.4853 O   0  0  0  0  0  0  0  0  0  0  0  0
  -29.7220   -2.8775   29.5350 O   0  0  0  0  0  0  0  0  0  0  0  0
  -26.4636    0.1157   27.2099 C   0  0  0  0  0  0  0  0  0  0  0  0
  -25.0858    0.0851   27.1184 C   0  0  0  0  0  0  0  0  0  0  0  0
  -24.2489    0.7682   27.3297 C   0  0  0  0  0  0  0  0  0  0  0  0
  -22.8071    0.7844   26.9789 C   0  0  0  0  0  0  0  0  0  0  0  0
  -21.8818    1.7926   27.4869 C   0  0  0  0  0  0  0  0  0  0  0  0
  4  7  1  0
  2  8  1  0
  8  9  2  0
  8 10  1  0
  3 11  1  0
 11 12  1  0
 12 13  2  3
 13 14  1  0
 14 15  2  0
  1  2  2  0
  2  5  1  0
  5  6  2  0
  6  4  1  0
  4  3  2  0
  3  1  1  0
M  END

$$$$
