No_4016-gen_results/8p0m/2024-11-27-11-27-31/
     RDKit          3D

 16 17  0  0  0  0  0  0  0  0999 V2000
  -28.0162   -0.8135   28.8779 C   0  0  0  0  0  0  0  0  0  0  0  0
  -28.4690   -0.7850   29.8287 C   0  0  0  0  0  0  0  0  0  0  0  0
  -27.1356    0.2359   28.5352 C   0  0  0  0  0  0  0  0  0  0  0  0
  -26.8745    1.2825   29.3982 C   0  0  0  0  0  0  0  0  0  0  0  0
  -27.5070    1.2380   30.6295 C   0  0  0  0  0  0  0  0  0  0  0  0
  -28.3293    0.1745   30.9350 C   0  0  0  0  0  0  0  0  0  0  0  0
  -26.4409    0.0880   27.2474 C   0  0  0  0  0  0  0  0  0  0  0  0
  -26.9306    0.6938   26.0589 C   0  0  0  0  0  0  0  0  0  0  0  0
  -25.1027   -0.4086   27.1966 C   0  0  0  0  0  0  0  0  0  0  0  0
  -28.1972    1.1745   26.0183 C   0  0  0  0  0  0  0  0  0  0  0  0
  -28.7524    1.4685   24.7804 C   0  0  0  0  0  0  0  0  0  0  0  0
  -30.0431    1.9999   24.7230 C   0  0  0  0  0  0  0  0  0  0  0  0
  -30.7181    2.3457   25.8791 C   0  0  0  0  0  0  0  0  0  0  0  0
  -30.1251    2.1497   27.1087 C   0  0  0  0  0  0  0  0  0  0  0  0
  -28.9050    1.6015   27.2107 C   0  0  0  0  0  0  0  0  0  0  0  0
  -26.1128    0.6320   24.8946 C   0  0  0  0  0  0  0  0  0  0  0  0
  3  7  1  0
  7  8  1  0
  7  9  1  0
  8 10  1  0
  8 16  1  0
  1  2  2  0
  2  6  1  0
  6  5  2  0
  5  4  1  0
  4  3  2  0
  3  1  1  0
 10 11  2  0
 11 12  1  0
 12 13  2  0
 13 14  1  0
 14 15  2  0
 15 10  1  0
M  END

$$$$
