No_4519-gen_results/8p0m/2024-11-27-11-27-31/
     RDKit          3D

 16 16  0  0  0  0  0  0  0  0999 V2000
  -28.0162   -0.8135   28.8779 C   0  0  0  0  0  0  0  0  0  0  0  0
  -27.0636   -0.1189   28.6079 C   0  0  0  0  0  0  0  0  0  0  0  0
  -27.0010    0.6913   27.4910 C   0  0  0  0  0  0  0  0  0  0  0  0
  -28.1373    0.7363   26.6350 C   0  0  0  0  0  0  0  0  0  0  0  0
  -29.2360    0.0765   27.0690 C   0  0  0  0  0  0  0  0  0  0  0  0
  -29.2177   -0.6429   28.1747 C   0  0  0  0  0  0  0  0  0  0  0  0
  -30.3516    0.1564   26.2430 N   0  0  0  0  0  0  0  0  0  0  0  0
  -31.4313   -0.4312   26.5996 C   0  0  0  0  0  0  0  0  0  0  0  0
  -32.6818   -0.5854   25.5310 Cl  0  0  0  0  0  0  0  0  0  0  0  0
  -31.8097   -0.7336   27.8050 O   0  0  0  0  0  0  0  0  0  0  0  0
  -25.7156   -0.2049   29.4233 C   0  0  0  0  0  0  0  0  0  0  0  0
  -25.1332    1.0455   29.8308 C   0  0  0  0  0  0  0  0  0  0  0  0
  -25.6930    1.6511   30.7914 C   0  0  0  0  0  0  0  0  0  0  0  0
  -23.9880    1.5165   29.1130 C   0  0  0  0  0  0  0  0  0  0  0  0
  -22.8560    1.3876   29.7744 F   0  0  0  0  0  0  0  0  0  0  0  0
  -24.0854    2.8617   28.8319 F   0  0  0  0  0  0  0  0  0  0  0  0
  5  7  1  0
  7  8  2  3
  8  9  1  0
  8 10  1  0
  2 11  1  0
 11 12  1  0
 12 13  1  0
 12 14  1  0
 14 15  1  0
 14 16  1  0
  1  2  2  0
  2  3  1  0
  3  4  2  0
  4  5  1  0
  5  6  2  0
  6  1  1  0
M  END

$$$$
