No_473-gen_results/8p0m/2024-11-27-11-27-31/
     RDKit          3D

 22 23  0  0  0  0  0  0  0  0999 V2000
  -28.0162   -0.8135   28.8779 C   0  0  0  0  0  0  0  0  0  0  0  0
  -27.0636   -0.1189   28.6079 C   0  0  0  0  0  0  0  0  0  0  0  0
  -26.9287    1.1713   29.0083 C   0  0  0  0  0  0  0  0  0  0  0  0
  -25.7702    2.0341   28.6884 C   0  0  0  0  0  0  0  0  0  0  0  0
  -24.7141    1.4431   27.9188 C   0  0  0  0  0  0  0  0  0  0  0  0
  -24.8590    0.0783   27.5836 C   0  0  0  0  0  0  0  0  0  0  0  0
  -25.9647   -0.6606   27.9164 C   0  0  0  0  0  0  0  0  0  0  0  0
  -28.0410   -1.4978   30.2732 C   0  0  0  0  0  0  0  0  0  0  0  0
  -26.9936   -1.8578   30.6301 F   0  0  0  0  0  0  0  0  0  0  0  0
  -28.9538   -2.5295   30.3355 F   0  0  0  0  0  0  0  0  0  0  0  0
  -28.5739   -0.5930   31.1887 F   0  0  0  0  0  0  0  0  0  0  0  0
  -23.5230    2.1579   27.5629 C   0  0  0  0  0  0  0  0  0  0  0  0
  -22.3972    1.3695   27.2315 Br  0  0  0  0  0  0  0  0  0  0  0  0
  -23.7101    3.4595   27.3977 O   0  0  0  0  0  0  0  0  0  0  0  0
  -25.6840    3.2213   29.0590 F   0  0  0  0  0  0  0  0  0  0  0  0
  -27.8923    1.7335   29.7005 O   0  0  0  0  0  0  0  0  0  0  0  0
  -29.0336    2.1191   29.0384 C   0  0  0  0  0  0  0  0  0  0  0  0
  -29.0131    2.9288   28.0697 C   0  0  0  0  0  0  0  0  0  0  0  0
  -30.0119    2.9614   27.1558 C   0  0  0  0  0  0  0  0  0  0  0  0
  -30.4041    2.1652   26.6514 C   0  0  0  0  0  0  0  0  0  0  0  0
  -30.8190    0.9584   27.5442 C   0  0  0  0  0  0  0  0  0  0  0  0
  -30.1772    1.2283   29.0514 C   0  0  0  0  0  0  0  0  0  0  0  0
  1  2  1  0
  1  8  1  0
  8  9  1  0
  8 10  1  0
  8 11  1  0
  5 12  1  0
 12 13  1  0
 12 14  2  0
  4 15  1  0
  3 16  1  0
 16 17  1  0
 17 18  2  0
 18 19  1  0
 19 20  2  0
 20 21  1  0
 21 22  2  0
 22 17  1  0
  2  3  2  0
  3  4  1  0
  4  5  2  0
  5  6  1  0
  6  7  2  0
  7  2  1  0
M  END

$$$$
