No_447-gen_results/8p0m/2024-11-27-11-27-31/
     RDKit          3D

 35 40  0  0  0  0  0  0  0  0999 V2000
  -28.1229   -1.3353   28.4874 O   0  0  0  0  0  0  0  0  0  0  0  0
  -27.0637   -0.8242   28.8687 C   0  0  0  0  0  0  0  0  0  0  0  0
  -25.9464   -1.0396   28.8492 C   0  0  0  0  0  0  0  0  0  0  0  0
  -24.7602   -0.1562   29.1644 C   0  0  0  0  0  0  0  0  0  0  0  0
  -25.0917    1.0791   29.6490 C   0  0  0  0  0  0  0  0  0  0  0  0
  -26.4090    1.4383   29.7067 C   0  0  0  0  0  0  0  0  0  0  0  0
  -27.3694    0.6586   29.4148 C   0  0  0  0  0  0  0  0  0  0  0  0
  -23.3561   -0.5638   29.1206 C   0  0  0  0  0  0  0  0  0  0  0  0
  -22.4323    0.2418   28.4551 C   0  0  0  0  0  0  0  0  0  0  0  0
  -22.8544    1.3978   27.7885 C   0  0  0  0  0  0  0  0  0  0  0  0
  -22.0023    1.9630   26.8419 C   0  0  0  0  0  0  0  0  0  0  0  0
  -24.1525    2.0044   27.8388 C   0  0  0  0  0  0  0  0  0  0  0  0
  -24.2811    2.0523   28.6436 C   0  0  0  0  0  0  0  0  0  0  0  0
  -24.5258    1.0858   31.1593 C   0  0  0  0  0  0  0  0  0  0  0  0
  -26.7792    2.3150   30.9188 C   0  0  0  0  0  0  0  0  0  0  0  0
  -25.5587    2.0838   31.7992 C   0  0  0  0  0  0  0  0  0  0  0  0
  -28.5811    1.2044   28.6106 C   0  0  0  0  0  0  0  0  0  0  0  0
  -28.9662    2.3050   29.0894 C   0  0  0  0  0  0  0  0  0  0  0  0
  -30.1817    2.5546   28.8937 C   0  0  0  0  0  0  0  0  0  0  0  0
  -30.9416    1.8312   27.9851 C   0  0  0  0  0  0  0  0  0  0  0  0
  -30.4874    0.6329   27.5170 C   0  0  0  0  0  0  0  0  0  0  0  0
  -29.0990    0.7077   27.5060 C   0  0  0  0  0  0  0  0  0  0  0  0
  -26.0027    1.6172   33.2312 C   0  0  0  0  0  0  0  0  0  0  0  0
  -24.8080    3.5148   31.9457 C   0  0  0  0  0  0  0  0  0  0  0  0
  -25.5763   -2.3856   28.9263 O   0  0  0  0  0  0  0  0  0  0  0  0
  -25.4401    4.4698   32.8953 C   0  0  0  0  0  0  0  0  0  0  0  0
  -26.5064    5.0532   32.4661 C   0  0  0  0  0  0  0  0  0  0  0  0
  -26.8264    6.1044   32.8061 C   0  0  0  0  0  0  0  0  0  0  0  0
  -28.0260    6.8377   32.2659 C   0  0  0  0  0  0  0  0  0  0  0  0
  -28.4878    6.4788   31.3259 C   0  0  0  0  0  0  0  0  0  0  0  0
  -28.1798    5.2084   30.6962 C   0  0  0  0  0  0  0  0  0  0  0  0
  -27.0772    4.5640   31.2590 C   0  0  0  0  0  0  0  0  0  0  0  0
  -26.7156    3.2524   30.7451 C   0  0  0  0  0  0  0  0  0  0  0  0
  -26.2687    3.7667   29.4656 O   0  0  0  0  0  0  0  0  0  0  0  0
  -26.6928    4.9947   28.9943 C   0  0  0  0  0  0  0  0  0  0  0  0
  1  2  2  0
  2  3  1  0
  3  4  1  0
  4  5  1  0
  5  6  1  0
  2  7  1  0
  6  7  1  0
  4  8  1  0
  8  9  1  0
  9 10  2  0
 10 11  1  0
 10 12  1  0
  5 13  1  0
 12 13  1  0
  5 14  1  0
  6 15  1  0
 14 16  1  0
 15 16  1  0
  7 17  1  0
 16 23  1  0
 16 24  1  0
  3 25  2  0
 24 26  1  0
 26 27  1  0
 15 33  1  0
 32 33  1  0
 33 34  1  0
 34 35  1  0
 17 18  2  0
 18 19  1  0
 19 20  2  0
 20 21  1  0
 21 22  2  0
 22 17  1  0
 27 28  2  0
 28 29  1  0
 29 30  2  0
 30 31  1  0
 31 32  2  0
 32 27  1  0
M  END

$$$$
