No_4673-gen_results/8p0m/2024-11-27-11-27-31/
     RDKit          3D

 21 22  0  0  0  0  0  0  0  0999 V2000
  -28.0162   -0.8135   28.8779 C   0  0  0  0  0  0  0  0  0  0  0  0
  -28.4690   -0.7850   29.8287 C   0  0  0  0  0  0  0  0  0  0  0  0
  -27.1356    0.2359   28.5352 C   0  0  0  0  0  0  0  0  0  0  0  0
  -26.3351    0.2900   27.2835 C   0  0  0  0  0  0  0  0  0  0  0  0
  -28.3692    0.1957   30.9236 C   0  0  0  0  0  0  0  0  0  0  0  0
  -27.5158    1.2655   30.6540 C   0  0  0  0  0  0  0  0  0  0  0  0
  -26.8411    1.2942   29.4761 C   0  0  0  0  0  0  0  0  0  0  0  0
  -25.5257    0.8816   26.8219 P   0  0  0  0  0  0  0  0  0  0  0  0
  -25.4587    0.9110   25.3183 O   0  0  0  0  0  0  0  0  0  0  0  0
  -25.6186    2.3792   27.0708 O   0  0  0  0  0  0  0  0  0  0  0  0
  -24.0403    0.5846   27.3281 O   0  0  0  0  0  0  0  0  0  0  0  0
  -23.0780    1.5941   27.4482 C   0  0  0  0  0  0  0  0  0  0  0  0
  -26.9005   -0.7745   26.6988 F   0  0  0  0  0  0  0  0  0  0  0  0
  -21.9174    1.1874   28.3239 C   0  0  0  0  0  0  0  0  0  0  0  0
  -20.5044    0.9778   27.7001 Cl  0  0  0  0  0  0  0  0  0  0  0  0
  -22.3474    0.0106   29.1243 N   0  0  0  0  0  0  0  0  0  0  0  0
  -23.0733    0.0760   30.1685 C   0  0  0  0  0  0  0  0  0  0  0  0
  -23.3860   -1.0964   30.8180 N   0  0  0  0  0  0  0  0  0  0  0  0
  -23.3454    1.1917   30.8600 N   0  0  0  0  0  0  0  0  0  0  0  0
  -24.1822   -0.7952   31.9542 C   0  0  0  0  0  0  0  0  0  0  0  0
  -24.1237    0.6362   32.0017 C   0  0  0  0  0  0  0  0  0  0  0  0
  3  4  1  0
  4  8  1  0
  8  9  2  0
  8 10  1  0
  8 11  1  0
 11 12  1  0
  4 13  1  0
 12 14  1  0
 14 15  1  0
 14 16  1  0
 16 17  1  0
 17 18  2  0
 17 19  1  0
 18 20  1  0
 19 21  2  0
 20 21  1  0
  1  2  2  0
  2  5  1  0
  5  6  2  0
  6  7  1  0
  7  3  2  0
  3  1  1  0
M  END

$$$$
