No_4506-gen_results/8p0m/2024-11-27-11-27-31/
     RDKit          3D

 25 25  0  0  0  0  0  0  0  0999 V2000
  -28.1229   -1.3353   28.4874 O   0  0  0  0  0  0  0  0  0  0  0  0
  -27.4806   -0.4044   28.7094 C   0  0  0  0  0  0  0  0  0  0  0  0
  -26.3804   -0.0867   27.9394 C   0  0  0  0  0  0  0  0  0  0  0  0
  -27.6664    0.4468   29.8988 N   0  0  0  0  0  0  0  0  0  0  0  0
  -26.4086    0.8567   26.8802 C   0  0  0  0  0  0  0  0  0  0  0  0
  -25.2466    1.1198   26.1102 C   0  0  0  0  0  0  0  0  0  0  0  0
  -23.9991    0.7500   26.5964 C   0  0  0  0  0  0  0  0  0  0  0  0
  -23.9411    0.0388   27.7865 C   0  0  0  0  0  0  0  0  0  0  0  0
  -25.0420   -0.3844   28.4675 C   0  0  0  0  0  0  0  0  0  0  0  0
  -28.7555    0.1052   30.7791 C   0  0  0  0  0  0  0  0  0  0  0  0
  -22.5984   -0.2318   28.3970 C   0  0  0  0  0  0  0  0  0  0  0  0
  -21.7030    0.8508   28.5945 C   0  0  0  0  0  0  0  0  0  0  0  0
  -22.3689   -1.4093   29.1475 C   0  0  0  0  0  0  0  0  0  0  0  0
  -20.4883    0.5711   28.8412 O   0  0  0  0  0  0  0  0  0  0  0  0
  -21.9819    2.0720   28.2377 O   0  0  0  0  0  0  0  0  0  0  0  0
  -26.8891    1.5690   30.2031 C   0  0  0  0  0  0  0  0  0  0  0  0
  -27.6188    2.7625   30.1632 C   0  0  0  0  0  0  0  0  0  0  0  0
  -27.3162    3.5764   31.1066 C   0  0  0  0  0  0  0  0  0  0  0  0
  -26.0067    3.6559   31.7545 C   0  0  0  0  0  0  0  0  0  0  0  0
  -25.2820    2.3986   31.7341 C   0  0  0  0  0  0  0  0  0  0  0  0
  -25.7169    1.3990   30.9774 C   0  0  0  0  0  0  0  0  0  0  0  0
  -24.9173    0.1541   31.1020 C   0  0  0  0  0  0  0  0  0  0  0  0
  -24.8446    1.5751   30.0246 O   0  0  0  0  0  0  0  0  0  0  0  0
  -23.9173    2.7162   31.8682 O   0  0  0  0  0  0  0  0  0  0  0  0
  -25.5864    1.8398   33.3216 C   0  0  0  0  0  0  0  0  0  0  0  0
  1  2  2  0
  2  3  1  0
  2  4  1  0
  4 10  1  0
  8 11  1  0
 11 12  1  0
 11 13  1  0
 12 14  2  0
 12 15  1  0
  4 16  1  0
 16 17  1  0
 17 18  2  3
 18 19  1  0
 19 20  2  3
 16 21  1  0
 21 22  1  0
 21 23  1  0
 20 24  1  0
 20 25  1  0
  3  5  2  0
  5  6  1  0
  6  7  2  0
  7  8  1  0
  8  9  2  0
  9  3  1  0
M  END

$$$$
