No_4979-gen_results/8p0m/2024-11-27-11-27-31/
     RDKit          3D

 26 27  0  0  0  0  0  0  0  0999 V2000
  -28.0162   -0.8135   28.8779 C   0  0  0  0  0  0  0  0  0  0  0  0
  -27.0636   -0.1189   28.6079 C   0  0  0  0  0  0  0  0  0  0  0  0
  -25.7647   -0.3897   29.0360 C   0  0  0  0  0  0  0  0  0  0  0  0
  -25.4887   -1.1536   29.7171 C   0  0  0  0  0  0  0  0  0  0  0  0
  -24.1276   -1.5020   30.2576 C   0  0  0  0  0  0  0  0  0  0  0  0
  -27.7578   -1.8963   29.8589 C   0  0  0  0  0  0  0  0  0  0  0  0
  -26.4639   -2.1282   30.3105 C   0  0  0  0  0  0  0  0  0  0  0  0
  -23.0704   -1.1634   29.3900 C   0  0  0  0  0  0  0  0  0  0  0  0
  -23.3180   -0.0429   28.4596 C   0  0  0  0  0  0  0  0  0  0  0  0
  -24.6301    0.2990   28.2278 C   0  0  0  0  0  0  0  0  0  0  0  0
  -28.9744   -2.5199   30.4105 C   0  0  0  0  0  0  0  0  0  0  0  0
  -28.9801   -3.7294   30.6350 O   0  0  0  0  0  0  0  0  0  0  0  0
  -30.1075   -1.9532   30.3968 O   0  0  0  0  0  0  0  0  0  0  0  0
  -24.8298    1.3565   27.1922 C   0  0  0  0  0  0  0  0  0  0  0  0
  -24.6956    2.7006   27.6384 C   0  0  0  0  0  0  0  0  0  0  0  0
  -25.2415    0.9807   25.9142 C   0  0  0  0  0  0  0  0  0  0  0  0
  -25.6121    3.5342   27.4471 C   0  0  0  0  0  0  0  0  0  0  0  0
  -26.7149    3.6427   27.9366 C   0  0  0  0  0  0  0  0  0  0  0  0
  -26.8774    3.7983   29.2562 C   0  0  0  0  0  0  0  0  0  0  0  0
  -26.0919    4.2220   29.9877 C   0  0  0  0  0  0  0  0  0  0  0  0
  -25.5334    3.4788   30.9403 C   0  0  0  0  0  0  0  0  0  0  0  0
  -26.2203    3.1262   31.9226 O   0  0  0  0  0  0  0  0  0  0  0  0
  -24.3350    2.9385   30.8987 O   0  0  0  0  0  0  0  0  0  0  0  0
  -28.2574    4.3514   29.5379 N   0  0  0  0  0  0  0  0  0  0  0  0
  -28.7955    4.6043   30.4392 C   0  0  0  0  0  0  0  0  0  0  0  0
  -30.1964    5.1808   30.4728 C   0  0  0  0  0  0  0  0  0  0  0  0
  6 11  1  0
 11 12  2  0
 11 13  1  0
 10 14  1  0
 14 15  1  0
 14 16  1  0
 15 17  1  0
 17 18  1  0
 18 19  1  0
 19 20  2  3
 20 21  1  0
 21 22  1  0
 21 23  2  0
 19 24  1  0
 24 25  2  3
 25 26  1  0
  4  5  2  0
  5  8  1  0
  8  9  2  0
  9 10  1  0
 10  3  2  0
  1  2  2  0
  2  3  1  0
  3  4  1  0
  4  7  1  0
  7  6  2  0
  6  1  1  0
M  END

$$$$
