No_4115-gen_results/8p0m/2024-11-27-11-27-31/
     RDKit          3D

 28 31  0  0  0  0  0  0  0  0999 V2000
  -28.0162   -0.8135   28.8779 C   0  0  0  0  0  0  0  0  0  0  0  0
  -27.0636   -0.1189   28.6079 C   0  0  0  0  0  0  0  0  0  0  0  0
  -27.0010    0.6913   27.4910 C   0  0  0  0  0  0  0  0  0  0  0  0
  -28.1373    0.7363   26.6350 C   0  0  0  0  0  0  0  0  0  0  0  0
  -28.1438    1.4323   25.4880 C   0  0  0  0  0  0  0  0  0  0  0  0
  -27.9644   -1.5920   30.1433 C   0  0  0  0  0  0  0  0  0  0  0  0
  -26.7541   -1.7211   30.8035 C   0  0  0  0  0  0  0  0  0  0  0  0
  -25.6278   -1.0733   30.4055 C   0  0  0  0  0  0  0  0  0  0  0  0
  -25.7245   -0.2495   29.3126 C   0  0  0  0  0  0  0  0  0  0  0  0
  -26.9843    2.0884   25.0239 C   0  0  0  0  0  0  0  0  0  0  0  0
  -25.8258    2.0276   25.7649 C   0  0  0  0  0  0  0  0  0  0  0  0
  -25.8055    1.3197   26.9469 C   0  0  0  0  0  0  0  0  0  0  0  0
  -29.1283   -2.3846   30.6080 C   0  0  0  0  0  0  0  0  0  0  0  0
  -29.8430   -1.9962   31.2981 O   0  0  0  0  0  0  0  0  0  0  0  0
  -29.1111   -3.6343   30.1142 O   0  0  0  0  0  0  0  0  0  0  0  0
  -29.3392    1.5730   24.6484 C   0  0  0  0  0  0  0  0  0  0  0  0
  -30.0421    0.4266   24.6325 C   0  0  0  0  0  0  0  0  0  0  0  0
  -29.6751   -0.7010   24.9331 C   0  0  0  0  0  0  0  0  0  0  0  0
  -30.6763   -1.6811   24.5586 C   0  0  0  0  0  0  0  0  0  0  0  0
  -31.3822    0.4703   24.2472 C   0  0  0  0  0  0  0  0  0  0  0  0
  -31.7647   -0.9868   24.1362 C   0  0  0  0  0  0  0  0  0  0  0  0
  -29.0351    2.2506   23.3957 C   0  0  0  0  0  0  0  0  0  0  0  0
  -30.2024    2.7082   25.5277 C   0  0  0  0  0  0  0  0  0  0  0  0
  -30.1066    3.0723   26.5189 C   0  0  0  0  0  0  0  0  0  0  0  0
  -30.8706    4.0532   27.2848 C   0  0  0  0  0  0  0  0  0  0  0  0
  -31.8703    4.6121   26.5658 C   0  0  0  0  0  0  0  0  0  0  0  0
  -32.1178    4.2476   25.2308 C   0  0  0  0  0  0  0  0  0  0  0  0
  -31.2628    3.3140   24.6568 C   0  0  0  0  0  0  0  0  0  0  0  0
  6 13  1  0
 13 14  2  0
 13 15  1  0
  5 16  1  0
 16 17  1  0
 17 18  1  0
 18 19  2  0
 17 20  1  0
 19 21  1  0
 20 21  2  0
 16 22  1  0
 16 23  1  0
  2  3  1  0
  3  4  2  0
  4  5  1  0
  5 10  2  0
 10 11  1  0
 11 12  2  0
 12  3  1  0
 23 24  2  0
 24 25  1  0
 25 26  2  0
 26 27  1  0
 27 28  2  0
 28 23  1  0
  1  2  2  0
  2  9  1  0
  9  8  2  0
  8  7  1  0
  7  6  2  0
  6  1  1  0
M  END

$$$$
