No_4677-gen_results/8p0m/2024-11-27-11-27-31/
     RDKit          3D

 11 11  0  0  0  0  0  0  0  0999 V2000
  -28.0162   -0.8135   28.8779 C   0  0  0  0  0  0  0  0  0  0  0  0
  -28.4690   -0.7850   29.8287 C   0  0  0  0  0  0  0  0  0  0  0  0
  -27.0871    0.2903   28.6377 C   0  0  0  0  0  0  0  0  0  0  0  0
  -26.9103    0.8486   27.4199 C   0  0  0  0  0  0  0  0  0  0  0  0
  -27.8904   -0.5560   31.0200 N   0  0  0  0  0  0  0  0  0  0  0  0
  -25.8256    1.5951   27.1696 C   0  0  0  0  0  0  0  0  0  0  0  0
  -25.4915    2.1855   25.9383 C   0  0  0  0  0  0  0  0  0  0  0  0
  -26.9162    0.4335   31.0436 C   0  0  0  0  0  0  0  0  0  0  0  0
  -26.5092    0.9001   29.8395 C   0  0  0  0  0  0  0  0  0  0  0  0
  -24.3627    3.0688   25.8524 C   0  0  0  0  0  0  0  0  0  0  0  0
  -23.4586    3.1610   26.9235 C   0  0  0  0  0  0  0  0  0  0  0  0
  3  4  1  0
  4  6  2  3
  6  7  1  0
  7 10  2  3
 10 11  1  0
  1  2  2  0
  2  5  1  0
  5  8  2  0
  8  9  1  0
  9  3  2  0
  3  1  1  0
M  END

$$$$
