No_4665-gen_results/8p0m/2024-11-27-11-27-31/
     RDKit          3D

 28 29  0  0  0  0  0  0  0  0999 V2000
  -28.0162   -0.8135   28.8779 C   0  0  0  0  0  0  0  0  0  0  0  0
  -28.4690   -0.7850   29.8287 C   0  0  0  0  0  0  0  0  0  0  0  0
  -27.1356    0.2359   28.5352 C   0  0  0  0  0  0  0  0  0  0  0  0
  -26.8745    1.2825   29.3982 C   0  0  0  0  0  0  0  0  0  0  0  0
  -28.3613    0.1987   30.9244 C   0  0  0  0  0  0  0  0  0  0  0  0
  -27.5277    1.2234   30.6356 C   0  0  0  0  0  0  0  0  0  0  0  0
  -26.3987    0.2949   27.2279 C   0  0  0  0  0  0  0  0  0  0  0  0
  -25.0392    0.2356   27.3538 C   0  0  0  0  0  0  0  0  0  0  0  0
  -24.4371    0.0057   28.5832 C   0  0  0  0  0  0  0  0  0  0  0  0
  -22.9453    0.2645   28.6076 C   0  0  0  0  0  0  0  0  0  0  0  0
  -22.1225   -0.3189   29.5575 C   0  0  0  0  0  0  0  0  0  0  0  0
  -22.7751   -0.9744   30.6212 C   0  0  0  0  0  0  0  0  0  0  0  0
  -24.6845   -0.8074   29.6483 N   0  0  0  0  0  0  0  0  0  0  0  0
  -23.9821   -1.3162   30.5747 C   0  0  0  0  0  0  0  0  0  0  0  0
  -27.1125    0.4809   26.0647 C   0  0  0  0  0  0  0  0  0  0  0  0
  -26.5683    0.2971   24.9751 N   0  0  0  0  0  0  0  0  0  0  0  0
  -28.3502    0.7115   26.0903 F   0  0  0  0  0  0  0  0  0  0  0  0
  -22.3222    1.1390   27.5906 C   0  0  0  0  0  0  0  0  0  0  0  0
  -22.8756    1.3468   26.5034 F   0  0  0  0  0  0  0  0  0  0  0  0
  -21.0419    0.7899   27.3073 F   0  0  0  0  0  0  0  0  0  0  0  0
  -22.2210    2.4344   28.2621 F   0  0  0  0  0  0  0  0  0  0  0  0
  -29.4917   -1.9402   30.3225 C   0  0  0  0  0  0  0  0  0  0  0  0
  -29.1877   -2.7699   30.9841 O   0  0  0  0  0  0  0  0  0  0  0  0
  -30.7419   -1.6911   30.0177 O   0  0  0  0  0  0  0  0  0  0  0  0
  -27.3007    2.3348   31.6143 C   0  0  0  0  0  0  0  0  0  0  0  0
  -26.6575    2.9213   32.1737 C   0  0  0  0  0  0  0  0  0  0  0  0
  -25.8607    3.9246   32.7177 C   0  0  0  0  0  0  0  0  0  0  0  0
  -25.1855    4.9219   32.6204 N   0  0  0  0  0  0  0  0  0  0  0  0
  3  7  1  0
  7  8  2  3
  8  9  1  0
  7 15  1  0
 15 16  1  0
 15 17  1  0
 10 18  1  0
 18 19  1  0
 18 20  1  0
 18 21  1  0
  2 22  1  0
 22 23  2  0
 22 24  1  0
  6 25  1  0
 25 26  3  0
 26 27  1  0
 27 28  3  0
  1  2  2  0
  2  5  1  0
  5  6  2  0
  6  4  1  0
  4  3  2  0
  3  1  1  0
  9 10  2  0
 10 11  1  0
 11 12  2  0
 12 14  1  0
 14 13  2  0
 13  9  1  0
M  END

$$$$
