No_4043-gen_results/8p0m/2024-11-27-11-27-31/
     RDKit          3D

 25 27  0  0  0  0  0  0  0  0999 V2000
  -28.0162   -0.8135   28.8779 C   0  0  0  0  0  0  0  0  0  0  0  0
  -27.0636   -0.1190   28.6079 C   0  0  0  0  0  0  0  0  0  0  0  0
  -25.7923   -0.4302   29.0761 C   0  0  0  0  0  0  0  0  0  0  0  0
  -25.5756   -1.5654   29.9363 C   0  0  0  0  0  0  0  0  0  0  0  0
  -26.7354   -2.3004   30.2173 C   0  0  0  0  0  0  0  0  0  0  0  0
  -27.9184   -1.9537   29.7629 C   0  0  0  0  0  0  0  0  0  0  0  0
  -29.0001   -2.7012   30.1151 O   0  0  0  0  0  0  0  0  0  0  0  0
  -24.5290    0.3490   28.7998 C   0  0  0  0  0  0  0  0  0  0  0  0
  -24.4808    1.2113   27.7998 C   0  0  0  0  0  0  0  0  0  0  0  0
  -23.2478    1.8974   27.4951 C   0  0  0  0  0  0  0  0  0  0  0  0
  -22.0497    1.5890   28.1642 C   0  0  0  0  0  0  0  0  0  0  0  0
  -23.3072    0.0149   29.4618 C   0  0  0  0  0  0  0  0  0  0  0  0
  -22.0852    0.6899   29.1374 C   0  0  0  0  0  0  0  0  0  0  0  0
  -30.1270   -2.1323   30.5815 C   0  0  0  0  0  0  0  0  0  0  0  0
  -30.5782   -2.8385   31.6842 C   0  0  0  0  0  0  0  0  0  0  0  0
  -29.7872   -3.6767   32.3628 C   0  0  0  0  0  0  0  0  0  0  0  0
  -31.9832   -2.6972   32.0780 C   0  0  0  0  0  0  0  0  0  0  0  0
  -30.2679   -4.4507   33.5605 C   0  0  0  0  0  0  0  0  0  0  0  0
  -32.4088   -3.4209   33.2470 C   0  0  0  0  0  0  0  0  0  0  0  0
  -31.5622   -4.2942   33.9368 C   0  0  0  0  0  0  0  0  0  0  0  0
  -30.6745   -1.1793   30.1157 O   0  0  0  0  0  0  0  0  0  0  0  0
  -23.2919    2.8171   26.4747 O   0  0  0  0  0  0  0  0  0  0  0  0
  -24.6002    3.1128   25.9795 C   0  0  0  0  0  0  0  0  0  0  0  0
  -33.6616   -3.2754   33.6380 F   0  0  0  0  0  0  0  0  0  0  0  0
  -27.2035    1.2849   27.5542 Cl  0  0  0  0  0  0  0  0  0  0  0  0
  6  7  1  0
  3  8  1  0
  7 14  1  0
 14 15  1  0
 14 21  2  0
 10 22  1  0
 22 23  1  0
 19 24  1  0
  2 25  1  0
  1  2  2  0
  2  3  1  0
  3  4  2  0
  4  5  1  0
  5  6  2  0
  6  1  1  0
 15 16  2  0
 16 18  1  0
 18 20  2  0
 20 19  1  0
 19 17  2  0
 17 15  1  0
  8  9  2  0
  9 10  1  0
 10 11  2  0
 11 13  1  0
 13 12  2  0
 12  8  1  0
M  END

$$$$
