No_4069-gen_results/8p0m/2024-11-27-11-27-31/
     RDKit          3D

 15 16  0  0  0  0  0  0  0  0999 V2000
  -28.0162   -0.8135   28.8779 C   0  0  0  0  0  0  0  0  0  0  0  0
  -28.4690   -0.7850   29.8287 C   0  0  0  0  0  0  0  0  0  0  0  0
  -26.5042   -0.7777   28.8766 C   0  0  0  0  0  0  0  0  0  0  0  0
  -25.8103   -0.8531   30.1028 C   0  0  0  0  0  0  0  0  0  0  0  0
  -27.9906   -0.8916   31.2257 C   0  0  0  0  0  0  0  0  0  0  0  0
  -26.6042   -0.8676   31.2652 C   0  0  0  0  0  0  0  0  0  0  0  0
  -30.0739   -0.8360   29.8615 C   0  0  0  0  0  0  0  0  0  0  0  0
  -30.6891   -1.6554   30.2229 O   0  0  0  0  0  0  0  0  0  0  0  0
  -30.6022    0.4333   29.5985 N   0  0  0  0  0  0  0  0  0  0  0  0
  -31.6256    0.7206   29.2957 C   0  0  0  0  0  0  0  0  0  0  0  0
  -32.1898    1.4306   28.6817 C   0  0  0  0  0  0  0  0  0  0  0  0
  -33.6109    1.5850   28.3846 C   0  0  0  0  0  0  0  0  0  0  0  0
  -34.4151    0.6437   29.0307 C   0  0  0  0  0  0  0  0  0  0  0  0
  -33.8643   -0.3317   29.7716 C   0  0  0  0  0  0  0  0  0  0  0  0
  -32.5559   -0.3895   29.9742 C   0  0  0  0  0  0  0  0  0  0  0  0
  2  7  1  0
  7  8  2  0
  7  9  1  0
  9 10  1  0
  1  2  2  0
  2  5  1  0
  5  6  2  0
  6  4  1  0
  4  3  2  0
  3  1  1  0
 10 11  2  0
 11 12  1  0
 12 13  2  0
 13 14  1  0
 14 15  2  0
 15 10  1  0
M  END

$$$$
