No_4632-gen_results/8p0m/2024-11-27-11-27-31/
     RDKit          3D

 18 20  0  0  0  0  0  0  0  0999 V2000
  -28.0162   -0.8135   28.8779 C   0  0  0  0  0  0  0  0  0  0  0  0
  -28.4690   -0.7850   29.8287 C   0  0  0  0  0  0  0  0  0  0  0  0
  -28.1816    0.4277   28.1134 C   0  0  0  0  0  0  0  0  0  0  0  0
  -27.4498    0.6435   26.8500 C   0  0  0  0  0  0  0  0  0  0  0  0
  -26.1815    0.0357   26.7145 C   0  0  0  0  0  0  0  0  0  0  0  0
  -25.2987    0.1871   27.5499 C   0  0  0  0  0  0  0  0  0  0  0  0
  -25.3262   -0.7151   28.7816 C   0  0  0  0  0  0  0  0  0  0  0  0
  -26.6181   -0.7720   29.4949 C   0  0  0  0  0  0  0  0  0  0  0  0
  -27.8168   -1.3326   30.9810 N   0  0  0  0  0  0  0  0  0  0  0  0
  -26.5583   -1.3575   30.7668 C   0  0  0  0  0  0  0  0  0  0  0  0
  -24.1519   -1.3049   29.2785 C   0  0  0  0  0  0  0  0  0  0  0  0
  -22.9594   -0.5123   29.2523 C   0  0  0  0  0  0  0  0  0  0  0  0
  -22.8181    0.3892   28.1007 C   0  0  0  0  0  0  0  0  0  0  0  0
  -23.9441    0.6234   27.2920 C   0  0  0  0  0  0  0  0  0  0  0  0
  -29.9189   -0.8497   30.1471 C   0  0  0  0  0  0  0  0  0  0  0  0
  -28.0614    1.4304   25.8596 C   0  0  0  0  0  0  0  0  0  0  0  0
  -27.9297    2.7100   25.8964 C   0  0  0  0  0  0  0  0  0  0  0  0
  -28.6728    0.7771   24.7585 C   0  0  0  0  0  0  0  0  0  0  0  0
  1  2  1  0
  1  3  2  0
  3  4  1  0
  4  5  1  0
  5  6  1  0
  1  8  1  0
  7  8  1  0
  2  9  1  0
  8 10  1  0
  9 10  2  0
  2 15  1  0
  4 16  1  0
 16 17  1  0
 16 18  1  0
  6  7  2  0
  7 11  1  0
 11 12  2  0
 12 13  1  0
 13 14  2  0
 14  6  1  0
M  END

$$$$
