No_4438-gen_results/8p0m/2024-11-27-11-27-31/
     RDKit          3D

 23 25  0  0  0  0  0  0  0  0999 V2000
  -28.0162   -0.8135   28.8779 C   0  0  0  0  0  0  0  0  0  0  0  0
  -28.4690   -0.7850   29.8287 C   0  0  0  0  0  0  0  0  0  0  0  0
  -26.5455   -0.8762   28.8500 C   0  0  0  0  0  0  0  0  0  0  0  0
  -25.8041   -1.0324   30.0571 C   0  0  0  0  0  0  0  0  0  0  0  0
  -27.9437   -0.9869   31.2075 C   0  0  0  0  0  0  0  0  0  0  0  0
  -26.5825   -1.0386   31.2231 C   0  0  0  0  0  0  0  0  0  0  0  0
  -30.2809   -0.7232   29.8834 Cl  0  0  0  0  0  0  0  0  0  0  0  0
  -24.3690   -1.1186   30.0640 C   0  0  0  0  0  0  0  0  0  0  0  0
  -23.6811    0.1519   30.0835 C   0  0  0  0  0  0  0  0  0  0  0  0
  -22.4350    0.2823   29.3993 C   0  0  0  0  0  0  0  0  0  0  0  0
  -21.8496    1.5102   29.1382 C   0  0  0  0  0  0  0  0  0  0  0  0
  -24.1863    1.3049   30.7687 C   0  0  0  0  0  0  0  0  0  0  0  0
  -23.6488    2.5883   30.4743 C   0  0  0  0  0  0  0  0  0  0  0  0
  -22.4579    2.6484   29.7435 C   0  0  0  0  0  0  0  0  0  0  0  0
  -25.5303   -0.7400   27.2583 Br  0  0  0  0  0  0  0  0  0  0  0  0
  -23.7481   -2.3231   30.1746 C   0  0  0  0  0  0  0  0  0  0  0  0
  -24.1920    3.6241   31.1354 O   0  0  0  0  0  0  0  0  0  0  0  0
  -25.1809    3.5128   32.0649 C   0  0  0  0  0  0  0  0  0  0  0  0
  -25.3886    4.7215   32.7666 C   0  0  0  0  0  0  0  0  0  0  0  0
  -26.2484    4.7045   33.8671 C   0  0  0  0  0  0  0  0  0  0  0  0
  -27.0721    3.5518   34.0497 C   0  0  0  0  0  0  0  0  0  0  0  0
  -26.8383    2.4144   33.3389 C   0  0  0  0  0  0  0  0  0  0  0  0
  -25.8825    2.4355   32.4289 C   0  0  0  0  0  0  0  0  0  0  0  0
  2  7  1  0
  4  8  1  0
  8  9  1  0
  3 15  1  0
  8 16  1  0
 13 17  1  0
 17 18  1  0
 18 19  2  0
 19 20  1  0
 20 21  2  0
 21 22  1  0
 22 23  2  0
 23 18  1  0
  9 10  2  0
 10 11  1  0
 11 14  2  0
 14 13  1  0
 13 12  2  0
 12  9  1  0
  1  2  2  0
  2  5  1  0
  5  6  2  0
  6  4  1  0
  4  3  2  0
  3  1  1  0
M  END

$$$$
