No_4558-gen_results/8p0m/2024-11-27-11-27-31/
     RDKit          3D

 30 32  0  0  0  0  0  0  0  0999 V2000
  -28.0162   -0.8135   28.8779 C   0  0  0  0  0  0  0  0  0  0  0  0
  -27.0636   -0.1189   28.6079 C   0  0  0  0  0  0  0  0  0  0  0  0
  -26.8756    1.1325   28.9134 C   0  0  0  0  0  0  0  0  0  0  0  0
  -27.9014    1.8066   29.6436 C   0  0  0  0  0  0  0  0  0  0  0  0
  -28.9449    1.0388   30.0360 C   0  0  0  0  0  0  0  0  0  0  0  0
  -29.0273   -0.2890   29.7051 C   0  0  0  0  0  0  0  0  0  0  0  0
  -25.6959    1.9505   28.4764 C   0  0  0  0  0  0  0  0  0  0  0  0
  -25.0886    1.8635   27.5900 C   0  0  0  0  0  0  0  0  0  0  0  0
  -23.8419    2.6359   27.2476 C   0  0  0  0  0  0  0  0  0  0  0  0
  -25.2941    3.0676   29.4577 C   0  0  0  0  0  0  0  0  0  0  0  0
  -24.2427    3.9376   29.1506 C   0  0  0  0  0  0  0  0  0  0  0  0
  -23.4785    3.6415   28.0197 C   0  0  0  0  0  0  0  0  0  0  0  0
  -29.9238   -1.2360   30.0956 O   0  0  0  0  0  0  0  0  0  0  0  0
  -29.6357   -2.2731   30.8559 C   0  0  0  0  0  0  0  0  0  0  0  0
  -29.8989   -3.5290   30.2334 C   0  0  0  0  0  0  0  0  0  0  0  0
  -30.5616   -4.3893   31.1360 C   0  0  0  0  0  0  0  0  0  0  0  0
  -30.0559   -4.7218   32.1654 O   0  0  0  0  0  0  0  0  0  0  0  0
  -31.6493   -5.0443   30.6327 N   0  0  0  0  0  0  0  0  0  0  0  0
  -32.2279   -4.8470   29.3747 C   0  0  0  0  0  0  0  0  0  0  0  0
  -32.0829   -3.7743   28.7963 C   0  0  0  0  0  0  0  0  0  0  0  0
  -33.0317   -2.7664   28.7183 C   0  0  0  0  0  0  0  0  0  0  0  0
  -32.8770   -1.5571   27.9759 C   0  0  0  0  0  0  0  0  0  0  0  0
  -31.8492   -1.5018   27.0331 C   0  0  0  0  0  0  0  0  0  0  0  0
  -31.5854   -0.2604   26.4056 C   0  0  0  0  0  0  0  0  0  0  0  0
  -32.2171    0.8888   26.8598 C   0  0  0  0  0  0  0  0  0  0  0  0
  -33.2372    0.8069   27.8047 C   0  0  0  0  0  0  0  0  0  0  0  0
  -33.5063   -0.4058   28.4377 C   0  0  0  0  0  0  0  0  0  0  0  0
  -30.4909   -0.1432   25.4346 C   0  0  0  0  0  0  0  0  0  0  0  0
  -30.1914   -1.0151   24.8027 O   0  0  0  0  0  0  0  0  0  0  0  0
  -29.7607    0.9450   25.4426 O   0  0  0  0  0  0  0  0  0  0  0  0
  3  7  1  0
  6 13  1  0
 13 14  1  0
 14 15  1  0
 15 16  1  0
 16 17  2  0
 16 18  1  0
 18 19  1  0
 19 20  1  0
 20 21  2  3
 21 22  1  0
 24 28  1  0
 28 29  2  0
 28 30  1  0
  1  2  2  0
  2  3  1  0
  3  4  2  0
  4  5  1  0
  5  6  2  0
  6  1  1  0
 22 23  2  0
 23 24  1  0
 24 25  2  0
 25 26  1  0
 26 27  2  0
 27 22  1  0
  7  8  2  0
  8  9  1  0
  9 12  2  0
 12 11  1  0
 11 10  2  0
 10  7  1  0
M  END

$$$$
