No_4309-gen_results/8p0m/2024-11-27-11-27-31/
     RDKit          3D

 14 16  0  0  0  0  0  0  0  0999 V2000
  -28.0162   -0.8135   28.8779 C   0  0  0  0  0  0  0  0  0  0  0  0
  -28.4690   -0.7850   29.8287 C   0  0  0  0  0  0  0  0  0  0  0  0
  -26.5042   -0.7777   28.8766 C   0  0  0  0  0  0  0  0  0  0  0  0
  -25.7622   -0.0022   27.9705 C   0  0  0  0  0  0  0  0  0  0  0  0
  -29.9993   -0.7599   29.8953 C   0  0  0  0  0  0  0  0  0  0  0  0
  -24.3210   -0.0297   28.0177 C   0  0  0  0  0  0  0  0  0  0  0  0
  -23.6855   -0.8662   28.9737 C   0  0  0  0  0  0  0  0  0  0  0  0
  -24.4066   -1.6560   29.8003 C   0  0  0  0  0  0  0  0  0  0  0  0
  -25.7874   -1.6267   29.7609 C   0  0  0  0  0  0  0  0  0  0  0  0
  -30.7322   -1.3187   30.8865 C   0  0  0  0  0  0  0  0  0  0  0  0
  -30.2760   -1.9445   31.5841 C   0  0  0  0  0  0  0  0  0  0  0  0
  -28.8860   -2.2411   31.8886 C   0  0  0  0  0  0  0  0  0  0  0  0
  -28.0657   -1.8008   30.8425 C   0  0  0  0  0  0  0  0  0  0  0  0
  -26.6382   -2.0550   30.8870 C   0  0  0  0  0  0  0  0  0  0  0  0
  1  2  1  0
  1  3  1  0
  9 14  1  0
 13 14  1  0
  3  4  2  0
  4  6  1  0
  6  7  2  0
  7  8  1  0
  8  9  2  0
  9  3  1  0
  2  5  2  0
  5 10  1  0
 10 11  2  0
 11 12  1  0
 12 13  2  0
 13  2  1  0
M  END

$$$$
