No_4251-gen_results/8p0m/2024-11-27-11-27-31/
     RDKit          3D

 14 14  0  0  0  0  0  0  0  0999 V2000
  -28.0162   -0.8135   28.8779 C   0  0  0  0  0  0  0  0  0  0  0  0
  -28.4690   -0.7850   29.8287 C   0  0  0  0  0  0  0  0  0  0  0  0
  -28.1816    0.4277   28.1134 C   0  0  0  0  0  0  0  0  0  0  0  0
  -28.9841    1.4155   28.5154 C   0  0  0  0  0  0  0  0  0  0  0  0
  -29.3802    0.1384   30.4612 C   0  0  0  0  0  0  0  0  0  0  0  0
  -29.5415    1.2736   29.7242 C   0  0  0  0  0  0  0  0  0  0  0  0
  -27.4452    0.4872   26.7726 C   0  0  0  0  0  0  0  0  0  0  0  0
  -28.1098    0.2408   25.8110 F   0  0  0  0  0  0  0  0  0  0  0  0
  -26.3477   -0.3394   26.8154 F   0  0  0  0  0  0  0  0  0  0  0  0
  -26.9057    1.7585   26.5489 F   0  0  0  0  0  0  0  0  0  0  0  0
  -30.5963    2.5179   30.3009 Cl  0  0  0  0  0  0  0  0  0  0  0  0
  -28.2763   -2.1495   30.8037 C   0  0  0  0  0  0  0  0  0  0  0  0
  -27.6697   -3.0850   30.4406 O   0  0  0  0  0  0  0  0  0  0  0  0
  -28.7245   -2.0621   31.9977 O   0  0  0  0  0  0  0  0  0  0  0  0
  3  7  1  0
  7  8  1  0
  7  9  1  0
  7 10  1  0
  6 11  1  0
  2 12  1  0
 12 13  2  0
 12 14  1  0
  1  2  2  0
  2  5  1  0
  5  6  2  0
  6  4  1  0
  4  3  2  0
  3  1  1  0
M  END

$$$$
