No_4189-gen_results/8p0m/2024-11-27-11-27-31/
     RDKit          3D

 35 37  0  0  0  0  0  0  0  0999 V2000
  -28.0162   -0.8135   28.8779 C   0  0  0  0  0  0  0  0  0  0  0  0
  -27.0636   -0.1189   28.6079 C   0  0  0  0  0  0  0  0  0  0  0  0
  -25.7647   -0.3897   29.0360 C   0  0  0  0  0  0  0  0  0  0  0  0
  -24.5516    0.4058   28.7646 C   0  0  0  0  0  0  0  0  0  0  0  0
  -24.6957    1.4480   27.7988 C   0  0  0  0  0  0  0  0  0  0  0  0
  -25.9755    1.7250   27.3077 C   0  0  0  0  0  0  0  0  0  0  0  0
  -27.0718    1.0134   27.6535 C   0  0  0  0  0  0  0  0  0  0  0  0
  -28.6043   -0.4743   30.2323 C   0  0  0  0  0  0  0  0  0  0  0  0
  -28.2472    0.2907   30.9004 N   0  0  0  0  0  0  0  0  0  0  0  0
  -29.7712   -1.1899   30.4620 O   0  0  0  0  0  0  0  0  0  0  0  0
  -28.8770    0.6174   32.2624 C   0  0  0  0  0  0  0  0  0  0  0  0
  -23.5191    2.2568   27.5213 C   0  0  0  0  0  0  0  0  0  0  0  0
  -23.6309    3.3363   27.0694 O   0  0  0  0  0  0  0  0  0  0  0  0
  -22.2931    1.7785   27.6205 O   0  0  0  0  0  0  0  0  0  0  0  0
  -28.3861    1.3050   27.0558 C   0  0  0  0  0  0  0  0  0  0  0  0
  -29.0382    2.1067   27.3909 N   0  0  0  0  0  0  0  0  0  0  0  0
  -28.6555    3.3606   27.6430 C   0  0  0  0  0  0  0  0  0  0  0  0
  -30.4779    1.8803   27.7198 C   0  0  0  0  0  0  0  0  0  0  0  0
  -28.6237    0.5013   26.0166 O   0  0  0  0  0  0  0  0  0  0  0  0
  -25.4508   -1.5117   30.0189 C   0  0  0  0  0  0  0  0  0  0  0  0
  -24.3583   -2.2453   29.8394 C   0  0  0  0  0  0  0  0  0  0  0  0
  -28.6397    1.6911   32.7351 C   0  0  0  0  0  0  0  0  0  0  0  0
  -28.4060    2.7645   32.2412 C   0  0  0  0  0  0  0  0  0  0  0  0
  -27.6379    2.6866   30.9758 C   0  0  0  0  0  0  0  0  0  0  0  0
  -27.7593    1.5957   30.4289 C   0  0  0  0  0  0  0  0  0  0  0  0
  -28.4995    4.2867   27.1163 C   0  0  0  0  0  0  0  0  0  0  0  0
  -31.4366    2.7614   27.2163 C   0  0  0  0  0  0  0  0  0  0  0  0
  -32.5464    2.8064   27.8980 C   0  0  0  0  0  0  0  0  0  0  0  0
  -32.9599    1.7472   28.7637 C   0  0  0  0  0  0  0  0  0  0  0  0
  -31.9983    0.8105   29.1557 C   0  0  0  0  0  0  0  0  0  0  0  0
  -30.7482    0.9688   28.7230 C   0  0  0  0  0  0  0  0  0  0  0  0
  -27.8836    5.5691   27.5067 C   0  0  0  0  0  0  0  0  0  0  0  0
  -27.6529    6.6587   26.6999 C   0  0  0  0  0  0  0  0  0  0  0  0
  -28.5109    6.7151   25.5255 C   0  0  0  0  0  0  0  0  0  0  0  0
  -29.2603    5.6302   25.1607 C   0  0  0  0  0  0  0  0  0  0  0  0
  1  2  2  3
  2  3  1  0
  3  4  1  0
  4  5  1  0
  5  6  1  0
  2  7  1  0
  6  7  1  0
  1  8  1  0
  8  9  1  0
  8 10  2  0
  9 11  1  0
  5 12  1  0
 12 13  2  0
 12 14  1  0
  7 15  1  0
 15 16  1  0
 16 17  1  0
 16 18  1  0
 15 19  2  0
  3 20  1  0
 20 21  1  0
 22 23  1  0
  9 25  1  0
 24 25  1  0
 17 26  2  3
 26 32  1  0
 32 33  2  3
 33 34  1  0
 34 35  2  0
 11 22  1  0
 23 24  1  0
 18 27  2  0
 27 28  1  0
 28 29  2  0
 29 30  1  0
 30 31  2  0
 31 18  1  0
M  END

$$$$
