No_4140-gen_results/8p0m/2024-11-27-11-27-31/
     RDKit          3D

 35 38  0  0  0  0  0  0  0  0999 V2000
  -28.0162   -0.8135   28.8779 C   0  0  0  0  0  0  0  0  0  0  0  0
  -27.0636   -0.1189   28.6079 C   0  0  0  0  0  0  0  0  0  0  0  0
  -25.7923   -0.4302   29.0761 C   0  0  0  0  0  0  0  0  0  0  0  0
  -25.5756   -1.5654   29.9363 C   0  0  0  0  0  0  0  0  0  0  0  0
  -26.7354   -2.3004   30.2173 C   0  0  0  0  0  0  0  0  0  0  0  0
  -27.9184   -1.9537   29.7629 C   0  0  0  0  0  0  0  0  0  0  0  0
  -27.1057    1.1023   27.7593 C   0  0  0  0  0  0  0  0  0  0  0  0
  -26.7157    2.2350   27.9945 C   0  0  0  0  0  0  0  0  0  0  0  0
  -26.0688    2.4770   29.3567 C   0  0  0  0  0  0  0  0  0  0  0  0
  -26.2621    3.4491   30.0956 C   0  0  0  0  0  0  0  0  0  0  0  0
  -26.6040    4.7187   29.3953 C   0  0  0  0  0  0  0  0  0  0  0  0
  -27.0474    4.6411   28.1009 C   0  0  0  0  0  0  0  0  0  0  0  0
  -27.2102    3.4198   27.4435 C   0  0  0  0  0  0  0  0  0  0  0  0
  -27.5530    0.8062   26.3680 C   0  0  0  0  0  0  0  0  0  0  0  0
  -26.5407    0.2896   25.0979 Br  0  0  0  0  0  0  0  0  0  0  0  0
  -29.0023    1.0245   26.0691 C   0  0  0  0  0  0  0  0  0  0  0  0
  -29.2620    1.9088   25.1762 C   0  0  0  0  0  0  0  0  0  0  0  0
  -30.6024    2.1949   24.7565 C   0  0  0  0  0  0  0  0  0  0  0  0
  -30.8909    3.2553   23.9280 C   0  0  0  0  0  0  0  0  0  0  0  0
  -31.7087    3.9207   23.8264 C   0  0  0  0  0  0  0  0  0  0  0  0
  -33.0656    3.4446   24.4202 C   0  0  0  0  0  0  0  0  0  0  0  0
  -32.9543    2.3156   25.1800 C   0  0  0  0  0  0  0  0  0  0  0  0
  -31.7526    1.8443   25.4723 C   0  0  0  0  0  0  0  0  0  0  0  0
  -29.2888   -2.8530   30.2007 Cl  0  0  0  0  0  0  0  0  0  0  0  0
  -26.4761    5.9118   30.0335 O   0  0  0  0  0  0  0  0  0  0  0  0
  -26.8879    6.8624   30.0726 C   0  0  0  0  0  0  0  0  0  0  0  0
  -26.1877    7.8299   30.4600 C   0  0  0  0  0  0  0  0  0  0  0  0
  -28.2204    7.0972   29.6203 C   0  0  0  0  0  0  0  0  0  0  0  0
  -24.9501    7.7708   31.1764 C   0  0  0  0  0  0  0  0  0  0  0  0
  -24.0340    8.8327   31.4104 C   0  0  0  0  0  0  0  0  0  0  0  0
  -22.7709    8.6593   32.0701 C   0  0  0  0  0  0  0  0  0  0  0  0
  -22.5664    7.4016   32.7142 C   0  0  0  0  0  0  0  0  0  0  0  0
  -23.5102    6.3770   32.5979 C   0  0  0  0  0  0  0  0  0  0  0  0
  -24.6177    6.5742   31.8771 C   0  0  0  0  0  0  0  0  0  0  0  0
  -28.6604    8.4037   29.5512 C   0  0  0  0  0  0  0  0  0  0  0  0
  2  7  1  0
  7 14  1  0
 14 15  1  0
 14 16  1  0
 16 17  2  3
 17 18  1  0
  6 24  1  0
 11 25  1  0
 25 26  1  0
 26 27  2  3
 26 28  1  0
 27 29  1  0
 28 35  2  0
  7  8  1  0
 18 19  2  0
 19 20  1  0
 20 21  2  0
 21 22  1  0
 22 23  2  0
 23 18  1  0
  1  2  2  0
  2  3  1  0
  3  4  2  0
  4  5  1  0
  5  6  2  0
  6  1  1  0
  8  9  2  0
  9 10  1  0
 10 11  2  0
 11 12  1  0
 12 13  2  0
 13  8  1  0
 29 30  2  0
 30 31  1  0
 31 32  2  0
 32 33  1  0
 33 34  2  0
 34 29  1  0
M  END

$$$$
