No_439-gen_results/8p0m/2024-11-27-11-27-31/
     RDKit          3D

 15 16  0  0  0  0  0  0  0  0999 V2000
  -28.0162   -0.8135   28.8779 C   0  0  0  0  0  0  0  0  0  0  0  0
  -27.0636   -0.1189   28.6079 C   0  0  0  0  0  0  0  0  0  0  0  0
  -25.7647   -0.3897   29.0360 C   0  0  0  0  0  0  0  0  0  0  0  0
  -25.5296   -1.5302   29.9014 C   0  0  0  0  0  0  0  0  0  0  0  0
  -26.6577   -2.2915   30.2035 C   0  0  0  0  0  0  0  0  0  0  0  0
  -27.8548   -1.9555   29.7630 C   0  0  0  0  0  0  0  0  0  0  0  0
  -24.5349    0.4128   28.7431 C   0  0  0  0  0  0  0  0  0  0  0  0
  -24.4835    1.2431   27.7398 C   0  0  0  0  0  0  0  0  0  0  0  0
  -25.5272    1.5993   26.8896 C   0  0  0  0  0  0  0  0  0  0  0  0
  -23.1408    1.9133   27.4867 C   0  0  0  0  0  0  0  0  0  0  0  0
  -22.0456    1.3656   28.0049 N   0  0  0  0  0  0  0  0  0  0  0  0
  -23.3001    0.0347   29.4025 C   0  0  0  0  0  0  0  0  0  0  0  0
  -22.0342    0.6840   29.0359 C   0  0  0  0  0  0  0  0  0  0  0  0
  -28.9343   -2.7072   30.1288 O   0  0  0  0  0  0  0  0  0  0  0  0
  -25.2413    2.1066   25.6728 C   0  0  0  0  0  0  0  0  0  0  0  0
  3  7  1  0
  8  9  1  0
  6 14  1  0
  9 15  1  0
  1  2  2  0
  2  3  1  0
  3  4  2  0
  4  5  1  0
  5  6  2  0
  6  1  1  0
  7  8  2  0
  8 10  1  0
 10 11  2  0
 11 13  1  0
 13 12  2  0
 12  7  1  0
M  END

$$$$
