No_4024-gen_results/8p0m/2024-11-27-11-27-31/
     RDKit          3D

 23 25  0  0  0  0  0  0  0  0999 V2000
  -28.0162   -0.8135   28.8779 C   0  0  0  0  0  0  0  0  0  0  0  0
  -28.4690   -0.7850   29.8287 C   0  0  0  0  0  0  0  0  0  0  0  0
  -26.5455   -0.8762   28.8500 C   0  0  0  0  0  0  0  0  0  0  0  0
  -25.8041   -1.0324   30.0571 C   0  0  0  0  0  0  0  0  0  0  0  0
  -27.9437   -0.9869   31.2075 C   0  0  0  0  0  0  0  0  0  0  0  0
  -26.5825   -1.0386   31.2231 C   0  0  0  0  0  0  0  0  0  0  0  0
  -30.0606   -0.7371   29.9024 C   0  0  0  0  0  0  0  0  0  0  0  0
  -30.6052    0.0855   30.7066 O   0  0  0  0  0  0  0  0  0  0  0  0
  -30.6701   -1.4594   29.0728 O   0  0  0  0  0  0  0  0  0  0  0  0
  -24.3711   -1.0948   30.0783 C   0  0  0  0  0  0  0  0  0  0  0  0
  -23.7030    0.1902   30.1011 C   0  0  0  0  0  0  0  0  0  0  0  0
  -22.4581    0.3375   29.4175 C   0  0  0  0  0  0  0  0  0  0  0  0
  -21.7917   -0.8470   29.0286 C   0  0  0  0  0  0  0  0  0  0  0  0
  -22.5518   -2.0221   28.9300 C   0  0  0  0  0  0  0  0  0  0  0  0
  -23.8053   -2.1779   29.4359 C   0  0  0  0  0  0  0  0  0  0  0  0
  -24.4292   -3.3365   29.3664 N   0  0  0  0  0  0  0  0  0  0  0  0
  -24.5846   -4.1211   28.2611 C   0  0  0  0  0  0  0  0  0  0  0  0
  -25.0629   -5.4385   28.6494 C   0  0  0  0  0  0  0  0  0  0  0  0
  -25.4183   -5.2029   30.0946 C   0  0  0  0  0  0  0  0  0  0  0  0
  -25.0835   -3.9491   30.4533 C   0  0  0  0  0  0  0  0  0  0  0  0
  -24.3319    1.4385   30.7002 C   0  0  0  0  0  0  0  0  0  0  0  0
  -24.6626    2.4248   30.0065 O   0  0  0  0  0  0  0  0  0  0  0  0
  -24.4172    1.4437   32.0524 O   0  0  0  0  0  0  0  0  0  0  0  0
  2  7  1  0
  7  8  2  0
  7  9  1  0
  4 10  1  0
 15 16  1  0
 16 17  1  0
 17 18  2  0
 18 19  1  0
 16 20  1  0
 19 20  2  0
 11 21  1  0
 21 22  2  0
 21 23  1  0
  1  2  2  0
  2  5  1  0
  5  6  2  0
  6  4  1  0
  4  3  2  0
  3  1  1  0
 10 11  2  0
 11 12  1  0
 12 13  2  0
 13 14  1  0
 14 15  2  0
 15 10  1  0
M  END

$$$$
