No_4895-gen_results/8p0m/2024-11-27-11-27-31/
     RDKit          3D

 14 16  0  0  0  0  0  0  0  0999 V2000
  -28.0162   -0.8135   28.8779 C   0  0  0  0  0  0  0  0  0  0  0  0
  -28.4690   -0.7850   29.8287 C   0  0  0  0  0  0  0  0  0  0  0  0
  -27.0871    0.2903   28.6377 C   0  0  0  0  0  0  0  0  0  0  0  0
  -26.8317    1.2487   29.5869 C   0  0  0  0  0  0  0  0  0  0  0  0
  -28.3914    0.0801   31.0065 C   0  0  0  0  0  0  0  0  0  0  0  0
  -27.4940    1.1521   30.7841 C   0  0  0  0  0  0  0  0  0  0  0  0
  -26.3109    0.3917   27.3640 C   0  0  0  0  0  0  0  0  0  0  0  0
  -25.3678    1.4459   27.3016 C   0  0  0  0  0  0  0  0  0  0  0  0
  -24.4047    1.4820   26.4110 C   0  0  0  0  0  0  0  0  0  0  0  0
  -23.3587    2.5982   26.4561 C   0  0  0  0  0  0  0  0  0  0  0  0
  -23.5568    3.4859   27.4890 C   0  0  0  0  0  0  0  0  0  0  0  0
  -25.1578    2.6134   28.2295 C   0  0  0  0  0  0  0  0  0  0  0  0
  -25.1860    2.5331   29.3239 C   0  0  0  0  0  0  0  0  0  0  0  0
  -25.8702    2.2460   29.7903 C   0  0  0  0  0  0  0  0  0  0  0  0
  3  7  1  0
  7  8  1  0
  8  9  2  0
  9 10  1  0
 10 11  2  0
  8 12  1  0
 11 12  1  0
 12 13  1  0
  4 14  1  0
 13 14  1  0
  1  2  2  0
  2  5  1  0
  5  6  2  0
  6  4  1  0
  4  3  2  0
  3  1  1  0
M  END

$$$$
