No_4605-gen_results/8p0m/2024-11-27-11-27-31/
     RDKit          3D

 35 38  0  0  0  0  0  0  0  0999 V2000
  -28.0162   -0.8135   28.8779 C   0  0  0  0  0  0  0  0  0  0  0  0
  -27.0636   -0.1189   28.6079 C   0  0  0  0  0  0  0  0  0  0  0  0
  -25.7923   -0.4302   29.0761 C   0  0  0  0  0  0  0  0  0  0  0  0
  -24.5456    0.3494   28.8225 C   0  0  0  0  0  0  0  0  0  0  0  0
  -24.6586    1.4196   27.8878 C   0  0  0  0  0  0  0  0  0  0  0  0
  -25.9471    1.6811   27.3792 C   0  0  0  0  0  0  0  0  0  0  0  0
  -27.0439    0.9739   27.6871 C   0  0  0  0  0  0  0  0  0  0  0  0
  -29.2364   -0.0611   29.2668 C   0  0  0  0  0  0  0  0  0  0  0  0
  -29.8066   -0.3562   30.3832 C   0  0  0  0  0  0  0  0  0  0  0  0
  -30.9421    0.4176   30.8227 C   0  0  0  0  0  0  0  0  0  0  0  0
  -31.4533    1.3446   29.9244 C   0  0  0  0  0  0  0  0  0  0  0  0
  -30.8565    1.5531   28.7362 C   0  0  0  0  0  0  0  0  0  0  0  0
  -29.7215    0.8825   28.3822 C   0  0  0  0  0  0  0  0  0  0  0  0
  -23.4635    2.1511   27.5810 C   0  0  0  0  0  0  0  0  0  0  0  0
  -23.4625    3.1123   26.7933 N   0  0  0  0  0  0  0  0  0  0  0  0
  -22.2878    1.7349   27.9848 O   0  0  0  0  0  0  0  0  0  0  0  0
  -31.3943    2.6154   27.8258 C   0  0  0  0  0  0  0  0  0  0  0  0
  -31.2989    3.7854   28.1460 C   0  0  0  0  0  0  0  0  0  0  0  0
  -30.7416    4.2237   29.4181 C   0  0  0  0  0  0  0  0  0  0  0  0
  -30.0420    5.0986   29.6927 C   0  0  0  0  0  0  0  0  0  0  0  0
  -29.4915    5.3222   31.0137 C   0  0  0  0  0  0  0  0  0  0  0  0
  -29.8135    4.4220   32.0215 C   0  0  0  0  0  0  0  0  0  0  0  0
  -30.5999    3.4036   31.7086 C   0  0  0  0  0  0  0  0  0  0  0  0
  -30.9909    3.2303   30.4726 C   0  0  0  0  0  0  0  0  0  0  0  0
  -32.3219    3.3859   30.6687 F   0  0  0  0  0  0  0  0  0  0  0  0
  -32.8905    1.0175   29.7699 C   0  0  0  0  0  0  0  0  0  0  0  0
  -29.7866    2.7031   30.6702 F   0  0  0  0  0  0  0  0  0  0  0  0
  -30.3079    2.1487   32.3489 F   0  0  0  0  0  0  0  0  0  0  0  0
  -31.6038    3.7184   32.4608 F   0  0  0  0  0  0  0  0  0  0  0  0
  -33.6029    1.0021   28.7015 C   0  0  0  0  0  0  0  0  0  0  0  0
  -35.0063    0.7215   28.7612 C   0  0  0  0  0  0  0  0  0  0  0  0
  -35.5766    0.5313   29.9959 C   0  0  0  0  0  0  0  0  0  0  0  0
  -33.8816    0.7742   30.9527 C   0  0  0  0  0  0  0  0  0  0  0  0
  -35.1465    0.5410   30.9287 C   0  0  0  0  0  0  0  0  0  0  0  0
  -35.8996    0.3004   32.5184 Cl  0  0  0  0  0  0  0  0  0  0  0  0
  1  2  1  0
  1  8  1  0
  5 14  1  0
 14 15  1  0
 14 16  2  0
 12 17  1  0
 17 18  2  3
 18 19  1  0
 19 20  2  0
 20 21  1  0
 21 22  2  0
 22 23  1  0
 19 24  1  0
 23 24  1  0
 24 25  1  0
 11 26  1  0
 24 27  1  0
 23 28  1  0
 23 29  1  0
 26 30  2  0
 30 31  1  0
 31 32  2  0
 26 33  1  0
 32 33  1  0
 32 34  1  0
 34 35  1  0
  2  3  2  0
  3  4  1  0
  4  5  2  0
  5  6  1  0
  6  7  2  0
  7  2  1  0
  8  9  2  0
  9 10  1  0
 10 11  2  0
 11 12  1  0
 12 13  2  0
 13  8  1  0
M  END

$$$$
