No_4447-gen_results/8p0m/2024-11-27-11-27-31/
     RDKit          3D

 29 31  0  0  0  0  0  0  0  0999 V2000
  -28.0162   -0.8135   28.8779 C   0  0  0  0  0  0  0  0  0  0  0  0
  -27.0636   -0.1190   28.6079 C   0  0  0  0  0  0  0  0  0  0  0  0
  -25.8176   -0.3427   29.0488 N   0  0  0  0  0  0  0  0  0  0  0  0
  -25.5552   -1.4726   29.7295 C   0  0  0  0  0  0  0  0  0  0  0  0
  -26.6210   -2.2986   30.1049 C   0  0  0  0  0  0  0  0  0  0  0  0
  -27.8348   -1.9700   29.6762 C   0  0  0  0  0  0  0  0  0  0  0  0
  -27.1598    1.0910   27.8992 N   0  0  0  0  0  0  0  0  0  0  0  0
  -27.6895    1.1876   26.7187 C   0  0  0  0  0  0  0  0  0  0  0  0
  -28.3825    0.2716   26.2261 C   0  0  0  0  0  0  0  0  0  0  0  0
  -28.9494    0.3502   24.8926 C   0  0  0  0  0  0  0  0  0  0  0  0
  -28.7103    1.5228   24.1745 C   0  0  0  0  0  0  0  0  0  0  0  0
  -27.9649    2.5632   24.7067 C   0  0  0  0  0  0  0  0  0  0  0  0
  -27.4523    2.4621   25.9703 C   0  0  0  0  0  0  0  0  0  0  0  0
  -26.5871    2.3248   28.5947 C   0  0  0  0  0  0  0  0  0  0  0  0
  -26.3192    2.2393   30.0448 C   0  0  0  0  0  0  0  0  0  0  0  0
  -26.9871    3.0329   30.7012 C   0  0  0  0  0  0  0  0  0  0  0  0
  -26.8613    2.9272   32.2060 C   0  0  0  0  0  0  0  0  0  0  0  0
  -25.8590    2.0811   32.7612 C   0  0  0  0  0  0  0  0  0  0  0  0
  -25.0848    1.3372   31.8647 C   0  0  0  0  0  0  0  0  0  0  0  0
  -25.3172    1.4389   30.5076 C   0  0  0  0  0  0  0  0  0  0  0  0
  -26.4608    3.4360   28.0625 O   0  0  0  0  0  0  0  0  0  0  0  0
  -24.2728   -1.8233   30.1459 N   0  0  0  0  0  0  0  0  0  0  0  0
  -23.3830   -2.3744   29.2397 C   0  0  0  0  0  0  0  0  0  0  0  0
  -23.5180   -0.7294   30.8699 C   0  0  0  0  0  0  0  0  0  0  0  0
  -23.9383    2.0307   30.0384 C   0  0  0  0  0  0  0  0  0  0  0  0
  -22.8580    1.5867   30.1545 O   0  0  0  0  0  0  0  0  0  0  0  0
  -24.0119    3.0172   29.1008 O   0  0  0  0  0  0  0  0  0  0  0  0
  -29.6118   -0.5824   24.3736 F   0  0  0  0  0  0  0  0  0  0  0  0
  -27.6574    3.6247   33.0245 F   0  0  0  0  0  0  0  0  0  0  0  0
  2  7  1  0
  7  8  1  0
  7 14  1  0
 14 15  1  0
 14 21  2  0
  4 22  1  0
 22 23  1  0
 22 24  1  0
 20 25  1  0
 25 26  1  0
 25 27  2  0
 10 28  1  0
 17 29  1  0
 15 16  2  0
 16 17  1  0
 17 18  2  0
 18 19  1  0
 19 20  2  0
 20 15  1  0
  1  2  2  0
  2  3  1  0
  3  4  2  0
  4  5  1  0
  5  6  2  0
  6  1  1  0
  8  9  2  0
  9 10  1  0
 10 11  2  0
 11 12  1  0
 12 13  2  0
 13  8  1  0
M  END

$$$$
