No_4345-gen_results/8p0m/2024-11-27-11-27-31/
     RDKit          3D

 33 37  0  0  0  0  0  0  0  0999 V2000
  -28.1229   -1.3353   28.4874 O   0  0  0  0  0  0  0  0  0  0  0  0
  -27.4806   -0.4044   28.7094 C   0  0  0  0  0  0  0  0  0  0  0  0
  -26.3236    0.0606   27.9744 Cl  0  0  0  0  0  0  0  0  0  0  0  0
  -28.0068    0.5659   29.7283 N   0  0  0  0  0  0  0  0  0  0  0  0
  -27.3595    1.7709   30.0230 C   0  0  0  0  0  0  0  0  0  0  0  0
  -26.1077    1.7492   30.3821 C   0  0  0  0  0  0  0  0  0  0  0  0
  -25.5224    1.2047   31.0299 C   0  0  0  0  0  0  0  0  0  0  0  0
  -23.9888    1.2285   31.3036 C   0  0  0  0  0  0  0  0  0  0  0  0
  -23.3277    1.9964   30.3708 C   0  0  0  0  0  0  0  0  0  0  0  0
  -23.9725    2.5825   29.3345 C   0  0  0  0  0  0  0  0  0  0  0  0
  -25.3356    2.5634   29.2966 C   0  0  0  0  0  0  0  0  0  0  0  0
  -28.0713    2.3967   31.2439 C   0  0  0  0  0  0  0  0  0  0  0  0
  -27.8595    2.6529   28.8211 C   0  0  0  0  0  0  0  0  0  0  0  0
  -28.4914    1.9872   32.1304 C   0  0  0  0  0  0  0  0  0  0  0  0
  -29.0726    2.6204   33.3268 C   0  0  0  0  0  0  0  0  0  0  0  0
  -29.2087    3.9942   33.2301 C   0  0  0  0  0  0  0  0  0  0  0  0
  -28.2574    4.0025   31.2963 C   0  0  0  0  0  0  0  0  0  0  0  0
  -28.7299    4.6769   32.2457 C   0  0  0  0  0  0  0  0  0  0  0  0
  -28.9784    2.9903   28.7406 C   0  0  0  0  0  0  0  0  0  0  0  0
  -29.4546    3.7676   27.5569 C   0  0  0  0  0  0  0  0  0  0  0  0
  -28.5110    3.9944   26.5969 C   0  0  0  0  0  0  0  0  0  0  0  0
  -27.2035    3.5699   26.6873 C   0  0  0  0  0  0  0  0  0  0  0  0
  -26.8718    2.9323   27.7982 C   0  0  0  0  0  0  0  0  0  0  0  0
  -25.8939    3.0754   28.2245 N   0  0  0  0  0  0  0  0  0  0  0  0
  -31.2845    4.1880   27.2853 Br  0  0  0  0  0  0  0  0  0  0  0  0
  -28.9049    6.5428   32.0822 Br  0  0  0  0  0  0  0  0  0  0  0  0
  -29.5520    1.8393   34.4954 C   0  0  0  0  0  0  0  0  0  0  0  0
  -30.2205    0.9091   34.4275 C   0  0  0  0  0  0  0  0  0  0  0  0
  -30.6589    0.1456   35.6097 C   0  0  0  0  0  0  0  0  0  0  0  0
  -30.1978    0.5901   36.8492 C   0  0  0  0  0  0  0  0  0  0  0  0
  -29.4034    1.6678   36.9412 C   0  0  0  0  0  0  0  0  0  0  0  0
  -29.0135    2.3643   35.7991 C   0  0  0  0  0  0  0  0  0  0  0  0
  -31.4275   -0.8886   35.4720 F   0  0  0  0  0  0  0  0  0  0  0  0
  1  2  2  0
  2  3  1  0
  2  4  1  0
  4  5  1  0
  5  6  1  0
  5 12  1  0
  5 13  1  0
 11 24  1  0
 20 25  1  0
 18 26  1  0
 15 27  1  0
 29 33  1  0
 24 23  1  0
 12 14  2  0
 14 15  1  0
 15 16  2  0
 16 18  1  0
 18 17  2  0
 17 12  1  0
  6  7  2  0
  7  8  1  0
  8  9  2  0
  9 10  1  0
 10 11  2  0
 11  6  1  0
 13 19  2  0
 19 20  1  0
 20 21  2  0
 21 22  1  0
 22 23  2  0
 23 13  1  0
 27 28  2  0
 28 29  1  0
 29 30  2  0
 30 31  1  0
 31 32  2  0
 32 27  1  0
M  END

$$$$
