No_4722-gen_results/8p0m/2024-11-27-11-27-31/
     RDKit          3D

  8  8  0  0  0  0  0  0  0  0999 V2000
  -28.0162   -0.8135   28.8779 C   0  0  0  0  0  0  0  0  0  0  0  0
  -28.4690   -0.7850   29.8287 C   0  0  0  0  0  0  0  0  0  0  0  0
  -27.0871    0.2903   28.6377 C   0  0  0  0  0  0  0  0  0  0  0  0
  -26.0239    0.3644   29.2526 C   0  0  0  0  0  0  0  0  0  0  0  0
  -24.9536    1.2659   28.9526 C   0  0  0  0  0  0  0  0  0  0  0  0
  -27.5327   -0.7046   31.0831 C   0  0  0  0  0  0  0  0  0  0  0  0
  -26.3981    0.1684   30.7584 C   0  0  0  0  0  0  0  0  0  0  0  0
  -24.9806    2.2684   28.3773 C   0  0  0  0  0  0  0  0  0  0  0  0
  1  2  1  0
  1  3  1  0
  3  4  1  0
  4  5  2  3
  2  6  1  0
  4  7  1  0
  6  7  1  0
  5  8  1  0
M  END

$$$$
