No_4390-gen_results/8p0m/2024-11-27-11-27-31/
     RDKit          3D

 35 39  0  0  0  0  0  0  0  0999 V2000
  -28.0162   -0.8135   28.8779 C   0  0  0  0  0  0  0  0  0  0  0  0
  -28.4690   -0.7850   29.8287 C   0  0  0  0  0  0  0  0  0  0  0  0
  -27.1356    0.2359   28.5352 C   0  0  0  0  0  0  0  0  0  0  0  0
  -26.8745    1.2825   29.3982 C   0  0  0  0  0  0  0  0  0  0  0  0
  -28.3613    0.1987   30.9244 C   0  0  0  0  0  0  0  0  0  0  0  0
  -27.5277    1.2234   30.6356 C   0  0  0  0  0  0  0  0  0  0  0  0
  -26.3987    0.2949   27.2279 C   0  0  0  0  0  0  0  0  0  0  0  0
  -26.8913    0.5126   26.1471 N   0  0  0  0  0  0  0  0  0  0  0  0
  -25.0165    0.0107   27.2496 N   0  0  0  0  0  0  0  0  0  0  0  0
  -25.8171    0.3154   25.2352 C   0  0  0  0  0  0  0  0  0  0  0  0
  -24.2414   -0.2411   28.3687 C   0  0  0  0  0  0  0  0  0  0  0  0
  -24.7069    0.0536   25.9401 C   0  0  0  0  0  0  0  0  0  0  0  0
  -23.1400    0.8934   28.6114 C   0  0  0  0  0  0  0  0  0  0  0  0
  -24.2593   -1.3749   29.1268 C   0  0  0  0  0  0  0  0  0  0  0  0
  -22.4442    0.5988   29.6095 F   0  0  0  0  0  0  0  0  0  0  0  0
  -23.7152    2.0877   28.8941 F   0  0  0  0  0  0  0  0  0  0  0  0
  -22.3839    1.0174   27.5287 F   0  0  0  0  0  0  0  0  0  0  0  0
  -27.3059    2.3409   31.6451 C   0  0  0  0  0  0  0  0  0  0  0  0
  -28.1644    3.1192   32.0504 N   0  0  0  0  0  0  0  0  0  0  0  0
  -28.4528    4.1215   31.7396 C   0  0  0  0  0  0  0  0  0  0  0  0
  -29.5018    4.9031   32.3545 C   0  0  0  0  0  0  0  0  0  0  0  0
  -29.1107    2.5473   33.0230 C   0  0  0  0  0  0  0  0  0  0  0  0
  -30.0729    3.2082   33.6682 C   0  0  0  0  0  0  0  0  0  0  0  0
  -30.2596    4.4973   33.2959 C   0  0  0  0  0  0  0  0  0  0  0  0
  -26.3607    1.8006   32.7661 C   0  0  0  0  0  0  0  0  0  0  0  0
  -26.2479    3.3646   30.8550 C   0  0  0  0  0  0  0  0  0  0  0  0
  -26.4757    4.2518   30.0083 C   0  0  0  0  0  0  0  0  0  0  0  0
  -25.6108    5.0641   29.2673 C   0  0  0  0  0  0  0  0  0  0  0  0
  -26.2158    5.8944   28.4431 C   0  0  0  0  0  0  0  0  0  0  0  0
  -27.5100    5.9151   28.1781 C   0  0  0  0  0  0  0  0  0  0  0  0
  -27.8338    4.6033   29.4795 C   0  0  0  0  0  0  0  0  0  0  0  0
  -28.0996    4.8769   30.6531 O   0  0  0  0  0  0  0  0  0  0  0  0
  -29.4935   -1.9113   30.3501 C   0  0  0  0  0  0  0  0  0  0  0  0
  -30.4967   -1.9740   30.1686 O   0  0  0  0  0  0  0  0  0  0  0  0
  -28.8967   -2.6928   31.3504 O   0  0  0  0  0  0  0  0  0  0  0  0
  3  7  1  0
  7  8  2  0
  7  9  1  0
  8 10  1  0
  9 11  1  0
  9 12  1  0
 10 12  1  0
 11 13  1  0
 11 14  1  0
 13 15  1  0
 13 16  1  0
 13 17  1  0
  6 18  1  0
 18 19  1  0
 19 20  1  0
 19 22  1  0
 21 24  1  0
 23 24  1  0
 18 25  1  0
 18 26  1  0
 26 27  2  0
 27 28  1  0
 28 29  2  0
 29 30  1  0
 27 31  1  0
 30 31  2  0
 20 32  1  0
 31 32  1  0
  2 33  1  0
 33 34  2  0
 33 35  1  0
 20 21  1  0
 23 22  1  0
  1  2  2  0
  2  5  1  0
  5  6  2  0
  6  4  1  0
  4  3  2  0
  3  1  1  0
M  END

$$$$
