No_4723-gen_results/8p0m/2024-11-27-11-27-31/
     RDKit          3D

 16 18  0  0  0  0  0  0  0  0999 V2000
  -28.0162   -0.8135   28.8779 C   0  0  0  0  0  0  0  0  0  0  0  0
  -28.4690   -0.7850   29.8287 C   0  0  0  0  0  0  0  0  0  0  0  0
  -26.5455   -0.8762   28.8500 C   0  0  0  0  0  0  0  0  0  0  0  0
  -25.8041   -1.0324   30.0571 C   0  0  0  0  0  0  0  0  0  0  0  0
  -26.5373   -1.0386   31.2171 C   0  0  0  0  0  0  0  0  0  0  0  0
  -27.8843   -0.9532   31.1862 C   0  0  0  0  0  0  0  0  0  0  0  0
  -24.3555   -1.1121   30.0346 C   0  0  0  0  0  0  0  0  0  0  0  0
  -23.7079   -1.1920   30.8827 C   0  0  0  0  0  0  0  0  0  0  0  0
  -22.6450   -0.4491   31.2271 C   0  0  0  0  0  0  0  0  0  0  0  0
  -21.8538   -0.0815   30.0700 C   0  0  0  0  0  0  0  0  0  0  0  0
  -22.4909   -0.1096   28.7924 C   0  0  0  0  0  0  0  0  0  0  0  0
  -23.8260   -0.5982   28.7370 C   0  0  0  0  0  0  0  0  0  0  0  0
  -25.8051   -0.8050   27.7170 N   0  0  0  0  0  0  0  0  0  0  0  0
  -24.6221   -0.4698   27.6528 C   0  0  0  0  0  0  0  0  0  0  0  0
  -30.2922   -0.7822   29.9514 Cl  0  0  0  0  0  0  0  0  0  0  0  0
  -24.1229    0.0208   26.5697 O   0  0  0  0  0  0  0  0  0  0  0  0
  4  7  1  0
 12 14  1  0
 13 14  1  0
  2 15  1  0
 14 16  2  0
  3 13  1  0
  1  2  2  0
  2  6  1  0
  6  5  2  0
  5  4  1  0
  4  3  2  0
  3  1  1  0
  7  8  2  0
  8  9  1  0
  9 10  2  0
 10 11  1  0
 11 12  2  0
 12  7  1  0
M  END

$$$$
