No_4430-gen_results/8p0m/2024-11-27-11-27-31/
     RDKit          3D

 15 16  0  0  0  0  0  0  0  0999 V2000
  -28.0162   -0.8135   28.8779 C   0  0  0  0  0  0  0  0  0  0  0  0
  -27.0636   -0.1189   28.6079 C   0  0  0  0  0  0  0  0  0  0  0  0
  -26.9287    1.1713   29.0083 C   0  0  0  0  0  0  0  0  0  0  0  0
  -27.9560    1.7411   29.7840 C   0  0  0  0  0  0  0  0  0  0  0  0
  -29.0569   -0.3271   29.7466 C   0  0  0  0  0  0  0  0  0  0  0  0
  -28.9828    0.9722   30.1516 C   0  0  0  0  0  0  0  0  0  0  0  0
  -25.8815   -0.6260   27.7945 C   0  0  0  0  0  0  0  0  0  0  0  0
  -25.4215    0.1302   26.7096 C   0  0  0  0  0  0  0  0  0  0  0  0
  -26.1536    0.5761   25.7981 C   0  0  0  0  0  0  0  0  0  0  0  0
  -27.5277    0.3635   25.6697 C   0  0  0  0  0  0  0  0  0  0  0  0
  -28.2302    0.9492   24.9963 C   0  0  0  0  0  0  0  0  0  0  0  0
  -29.6608    0.7397   24.8963 C   0  0  0  0  0  0  0  0  0  0  0  0
  -30.1200   -0.2555   25.6727 C   0  0  0  0  0  0  0  0  0  0  0  0
  -29.3252   -0.8606   26.5816 C   0  0  0  0  0  0  0  0  0  0  0  0
  -28.0292   -0.5800   26.6834 C   0  0  0  0  0  0  0  0  0  0  0  0
  2  7  1  0
  7  8  2  3
  8  9  1  0
  9 10  1  0
  1  2  2  0
  2  3  1  0
  3  4  2  0
  4  6  1  0
  6  5  2  0
  5  1  1  0
 10 11  2  0
 11 12  1  0
 12 13  2  0
 13 14  1  0
 14 15  2  0
 15 10  1  0
M  END

$$$$
