No_4214-gen_results/8p0m/2024-11-27-11-27-31/
     RDKit          3D

 18 19  0  0  0  0  0  0  0  0999 V2000
  -28.0162   -0.8135   28.8779 C   0  0  0  0  0  0  0  0  0  0  0  0
  -27.0636   -0.1190   28.6079 C   0  0  0  0  0  0  0  0  0  0  0  0
  -27.0010    0.6913   27.4910 C   0  0  0  0  0  0  0  0  0  0  0  0
  -28.1373    0.7363   26.6350 C   0  0  0  0  0  0  0  0  0  0  0  0
  -29.2360    0.0765   27.0690 C   0  0  0  0  0  0  0  0  0  0  0  0
  -29.2177   -0.6429   28.1747 C   0  0  0  0  0  0  0  0  0  0  0  0
  -30.4152    0.1590   26.1819 C   0  0  0  0  0  0  0  0  0  0  0  0
  -30.3473    0.0802   24.9534 N   0  0  0  0  0  0  0  0  0  0  0  0
  -31.5704    0.1013   26.7354 O   0  0  0  0  0  0  0  0  0  0  0  0
  -25.7104   -0.2029   29.4236 C   0  0  0  0  0  0  0  0  0  0  0  0
  -24.5431   -0.4411   28.8433 C   0  0  0  0  0  0  0  0  0  0  0  0
  -23.3025   -0.4408   29.5848 C   0  0  0  0  0  0  0  0  0  0  0  0
  -23.3706   -0.3161   30.9039 C   0  0  0  0  0  0  0  0  0  0  0  0
  -25.6849   -0.0573   30.8220 C   0  0  0  0  0  0  0  0  0  0  0  0
  -24.5423   -0.1229   31.5729 C   0  0  0  0  0  0  0  0  0  0  0  0
  -29.0766   -0.0188   24.2019 C   0  0  0  0  0  0  0  0  0  0  0  0
  -31.5042    0.0882   24.0411 C   0  0  0  0  0  0  0  0  0  0  0  0
  -22.1834   -0.6937   28.9524 F   0  0  0  0  0  0  0  0  0  0  0  0
  5  7  1  0
  7  8  1  0
  7  9  2  0
  2 10  1  0
  8 16  1  0
  8 17  1  0
 12 18  1  0
  1  2  2  0
  2  3  1  0
  3  4  2  0
  4  5  1  0
  5  6  2  0
  6  1  1  0
 10 11  2  0
 11 12  1  0
 12 13  2  0
 13 15  1  0
 15 14  2  0
 14 10  1  0
M  END

$$$$
