No_4986-gen_results/8p0m/2024-11-27-11-27-31/
     RDKit          3D

 15 15  0  0  0  0  0  0  0  0999 V2000
  -28.0162   -0.8135   28.8779 C   0  0  0  0  0  0  0  0  0  0  0  0
  -27.0636   -0.1189   28.6079 C   0  0  0  0  0  0  0  0  0  0  0  0
  -25.7647   -0.3897   29.0360 C   0  0  0  0  0  0  0  0  0  0  0  0
  -24.5516    0.4058   28.7646 C   0  0  0  0  0  0  0  0  0  0  0  0
  -24.6957    1.4480   27.7988 C   0  0  0  0  0  0  0  0  0  0  0  0
  -23.5821    2.2166   27.4626 C   0  0  0  0  0  0  0  0  0  0  0  0
  -22.3295    1.8427   27.9661 C   0  0  0  0  0  0  0  0  0  0  0  0
  -22.1809    0.8284   28.8814 C   0  0  0  0  0  0  0  0  0  0  0  0
  -23.3190    0.0774   29.2471 C   0  0  0  0  0  0  0  0  0  0  0  0
  -29.3344   -0.2856   28.7394 C   0  0  0  0  0  0  0  0  0  0  0  0
  -30.4179   -0.8510   29.3854 C   0  0  0  0  0  0  0  0  0  0  0  0
  -29.5864   -0.0169   27.3083 N   0  0  0  0  0  0  0  0  0  0  0  0
  -25.4961   -1.6645   29.6586 C   0  0  0  0  0  0  0  0  0  0  0  0
  -29.0798    0.9766   26.6945 C   0  0  0  0  0  0  0  0  0  0  0  0
  -29.4808    1.0658   25.3703 C   0  0  0  0  0  0  0  0  0  0  0  0
  1  2  2  3
  2  3  1  0
  3  4  1  0
  1 10  1  0
 10 11  1  0
 10 12  1  0
  3 13  1  0
 12 14  1  0
 14 15  2  0
  4  5  2  0
  5  6  1  0
  6  7  2  0
  7  8  1  0
  8  9  2  0
  9  4  1  0
M  END

$$$$
