No_4634-gen_results/8p0m/2024-11-27-11-27-31/
     RDKit          3D

 30 33  0  0  0  0  0  0  0  0999 V2000
  -28.0162   -0.8135   28.8779 C   0  0  0  0  0  0  0  0  0  0  0  0
  -28.4690   -0.7850   29.8287 C   0  0  0  0  0  0  0  0  0  0  0  0
  -27.0871    0.2903   28.6377 C   0  0  0  0  0  0  0  0  0  0  0  0
  -26.8317    1.2487   29.5869 C   0  0  0  0  0  0  0  0  0  0  0  0
  -28.3914    0.0801   31.0065 C   0  0  0  0  0  0  0  0  0  0  0  0
  -27.4940    1.1521   30.7841 C   0  0  0  0  0  0  0  0  0  0  0  0
  -26.3109    0.3918   27.3640 C   0  0  0  0  0  0  0  0  0  0  0  0
  -25.1298    0.0734   27.3738 N   0  0  0  0  0  0  0  0  0  0  0  0
  -26.9473    0.7908   26.1670 C   0  0  0  0  0  0  0  0  0  0  0  0
  -26.1714    0.5623   25.0628 C   0  0  0  0  0  0  0  0  0  0  0  0
  -24.4654   -0.2820   28.6539 C   0  0  0  0  0  0  0  0  0  0  0  0
  -24.7421    0.3554   25.1178 C   0  0  0  0  0  0  0  0  0  0  0  0
  -24.2621    0.1580   26.2929 C   0  0  0  0  0  0  0  0  0  0  0  0
  -23.4911    0.4791   29.0488 C   0  0  0  0  0  0  0  0  0  0  0  0
  -24.6870   -1.5606   29.1909 C   0  0  0  0  0  0  0  0  0  0  0  0
  -22.7127    0.1176   30.1753 C   0  0  0  0  0  0  0  0  0  0  0  0
  -23.9314   -1.9408   30.3207 C   0  0  0  0  0  0  0  0  0  0  0  0
  -22.9848   -1.0797   30.8367 C   0  0  0  0  0  0  0  0  0  0  0  0
  -25.9574    2.4084   29.4097 C   0  0  0  0  0  0  0  0  0  0  0  0
  -25.5748    2.7623   28.4950 O   0  0  0  0  0  0  0  0  0  0  0  0
  -25.7136    3.1276   30.5995 N   0  0  0  0  0  0  0  0  0  0  0  0
  -25.0047    4.4356   30.4831 C   0  0  0  0  0  0  0  0  0  0  0  0
  -25.1885    5.1333   31.7917 C   0  0  0  0  0  0  0  0  0  0  0  0
  -24.6306    6.1691   32.0186 C   0  0  0  0  0  0  0  0  0  0  0  0
  -24.4092    7.1056   30.9452 C   0  0  0  0  0  0  0  0  0  0  0  0
  -24.7211    6.5871   29.6456 C   0  0  0  0  0  0  0  0  0  0  0  0
  -25.1111    5.2703   29.4667 C   0  0  0  0  0  0  0  0  0  0  0  0
  -24.5862    7.4300   28.5459 N   0  0  0  0  0  0  0  0  0  0  0  0
  -24.7066    6.9368   27.2695 C   0  0  0  0  0  0  0  0  0  0  0  0
  -24.3049    8.8373   28.7008 C   0  0  0  0  0  0  0  0  0  0  0  0
  3  7  1  0
  7  8  1  0
  7  9  1  0
  8 11  1  0
 10 12  1  0
  8 13  1  0
 12 13  1  0
  4 19  1  0
 19 20  2  0
 19 21  1  0
 21 22  1  0
 26 28  1  0
 28 29  1  0
 28 30  1  0
  9 10  1  0
 11 14  2  0
 14 16  1  0
 16 18  2  0
 18 17  1  0
 17 15  2  0
 15 11  1  0
 22 23  2  0
 23 24  1  0
 24 25  2  0
 25 26  1  0
 26 27  2  0
 27 22  1  0
  1  2  2  0
  2  5  1  0
  5  6  2  0
  6  4  1  0
  4  3  2  0
  3  1  1  0
M  END

$$$$
