No_4977-gen_results/8p0m/2024-11-27-11-27-31/
     RDKit          3D

 13 13  0  0  0  0  0  0  0  0999 V2000
  -28.1229   -1.3353   28.4874 O   0  0  0  0  0  0  0  0  0  0  0  0
  -27.0637   -0.8242   28.8687 C   0  0  0  0  0  0  0  0  0  0  0  0
  -25.9464   -1.0396   28.8492 C   0  0  0  0  0  0  0  0  0  0  0  0
  -24.7602   -0.1562   29.1644 C   0  0  0  0  0  0  0  0  0  0  0  0
  -25.0917    1.0791   29.6491 C   0  0  0  0  0  0  0  0  0  0  0  0
  -26.4090    1.4383   29.7067 C   0  0  0  0  0  0  0  0  0  0  0  0
  -27.3694    0.6586   29.4148 C   0  0  0  0  0  0  0  0  0  0  0  0
  -23.4556   -0.5448   29.1072 N   0  0  0  0  0  0  0  0  0  0  0  0
  -22.4655    0.2732   28.6269 C   0  0  0  0  0  0  0  0  0  0  0  0
  -22.7604    1.5178   28.1317 C   0  0  0  0  0  0  0  0  0  0  0  0
  -21.2024   -0.1598   28.6095 N   0  0  0  0  0  0  0  0  0  0  0  0
  -23.8254    2.1098   28.1039 O   0  0  0  0  0  0  0  0  0  0  0  0
  -21.5379    2.1832   27.6370 N   0  0  0  0  0  0  0  0  0  0  0  0
  1  2  2  0
  2  3  1  0
  3  4  1  0
  4  5  1  0
  5  6  1  0
  2  7  1  0
  4  8  1  0
  8  9  1  0
  9 10  1  0
  9 11  2  0
 10 12  2  0
 10 13  1  0
  6  7  1  0
M  END

$$$$
