No_4283-gen_results/8p0m/2024-11-27-11-27-31/
     RDKit          3D

 35 37  0  0  0  0  0  0  0  0999 V2000
  -28.0162   -0.8135   28.8779 C   0  0  0  0  0  0  0  0  0  0  0  0
  -28.4690   -0.7850   29.8287 C   0  0  0  0  0  0  0  0  0  0  0  0
  -28.1960    0.3478   28.0550 C   0  0  0  0  0  0  0  0  0  0  0  0
  -29.0191    1.3501   28.3782 C   0  0  0  0  0  0  0  0  0  0  0  0
  -29.4107    0.1803   30.3782 C   0  0  0  0  0  0  0  0  0  0  0  0
  -29.6059    1.2495   29.6193 C   0  0  0  0  0  0  0  0  0  0  0  0
  -27.4597    0.3802   26.7091 C   0  0  0  0  0  0  0  0  0  0  0  0
  -26.0094    0.3317   26.7236 C   0  0  0  0  0  0  0  0  0  0  0  0
  -25.3055    0.0239   27.8527 C   0  0  0  0  0  0  0  0  0  0  0  0
  -23.9153    0.1563   27.8949 C   0  0  0  0  0  0  0  0  0  0  0  0
  -23.2913    0.9453   26.9292 C   0  0  0  0  0  0  0  0  0  0  0  0
  -24.0056    1.4810   25.8662 C   0  0  0  0  0  0  0  0  0  0  0  0
  -25.3745    1.2308   25.7771 C   0  0  0  0  0  0  0  0  0  0  0  0
  -23.0937   -0.2047   29.0585 C   0  0  0  0  0  0  0  0  0  0  0  0
  -23.3736    0.0146   30.2453 C   0  0  0  0  0  0  0  0  0  0  0  0
  -24.5522   -0.2390   30.8266 C   0  0  0  0  0  0  0  0  0  0  0  0
  -24.9557    0.1185   32.1478 C   0  0  0  0  0  0  0  0  0  0  0  0
  -25.9791    0.8616   32.5077 C   0  0  0  0  0  0  0  0  0  0  0  0
  -26.3740    1.2161   33.7654 C   0  0  0  0  0  0  0  0  0  0  0  0
  -27.1782    2.3393   33.9737 C   0  0  0  0  0  0  0  0  0  0  0  0
  -27.7963    2.9514   32.8788 C   0  0  0  0  0  0  0  0  0  0  0  0
  -27.3836    2.6684   31.6345 C   0  0  0  0  0  0  0  0  0  0  0  0
  -26.4163    1.6950   31.3839 C   0  0  0  0  0  0  0  0  0  0  0  0
  -28.2632   -2.0079   30.8704 C   0  0  0  0  0  0  0  0  0  0  0  0
  -28.5865   -1.9943   31.9541 O   0  0  0  0  0  0  0  0  0  0  0  0
  -27.6695   -3.0435   30.2945 O   0  0  0  0  0  0  0  0  0  0  0  0
  -28.1690    0.2859   25.5389 C   0  0  0  0  0  0  0  0  0  0  0  0
  -28.6780    0.8389   24.8120 O   0  0  0  0  0  0  0  0  0  0  0  0
  -24.3500   -0.8766   33.1132 C   0  0  0  0  0  0  0  0  0  0  0  0
  -27.8691    3.3872   30.6365 F   0  0  0  0  0  0  0  0  0  0  0  0
  -22.0158    1.2045   27.0577 F   0  0  0  0  0  0  0  0  0  0  0  0
  -28.1552   -4.3605   30.5563 C   0  0  0  0  0  0  0  0  0  0  0  0
  -29.6247   -4.4198   30.2328 C   0  0  0  0  0  0  0  0  0  0  0  0
  -30.3295   -4.0908   31.0330 O   0  0  0  0  0  0  0  0  0  0  0  0
  -31.6164   -3.9239   30.7331 C   0  0  0  0  0  0  0  0  0  0  0  0
  3  7  1  0
  7  8  1  0
 10 14  1  0
 14 15  1  0
 15 16  2  3
 16 17  1  0
 17 18  1  0
  2 24  1  0
 24 25  2  0
 24 26  1  0
  7 27  1  0
 27 28  2  0
 17 29  1  0
 22 30  1  0
 11 31  1  0
 26 32  1  0
 32 33  1  0
 33 34  1  0
 34 35  1  0
 18 19  2  0
 19 20  1  0
 20 21  2  0
 21 22  1  0
 22 23  2  0
 23 18  1  0
  8  9  2  0
  9 10  1  0
 10 11  2  0
 11 12  1  0
 12 13  2  0
 13  8  1  0
  1  2  2  0
  2  5  1  0
  5  6  2  0
  6  4  1  0
  4  3  2  0
  3  1  1  0
M  END

$$$$
