No_4056-gen_results/8p0m/2024-11-27-11-27-31/
     RDKit          3D

 14 14  0  0  0  0  0  0  0  0999 V2000
  -28.1229   -1.3353   28.4874 O   0  0  0  0  0  0  0  0  0  0  0  0
  -27.4806   -0.4044   28.7094 C   0  0  0  0  0  0  0  0  0  0  0  0
  -26.3804   -0.0867   27.9394 C   0  0  0  0  0  0  0  0  0  0  0  0
  -27.6665    0.4468   29.8988 N   0  0  0  0  0  0  0  0  0  0  0  0
  -25.1773   -0.4388   28.3946 C   0  0  0  0  0  0  0  0  0  0  0  0
  -26.5259    0.6036   26.6867 C   0  0  0  0  0  0  0  0  0  0  0  0
  -23.9372    0.0372   27.6524 C   0  0  0  0  0  0  0  0  0  0  0  0
  -25.3755    0.9746   25.9410 C   0  0  0  0  0  0  0  0  0  0  0  0
  -24.0997    0.7141   26.4562 C   0  0  0  0  0  0  0  0  0  0  0  0
  -28.7539    0.1002   30.7927 C   0  0  0  0  0  0  0  0  0  0  0  0
  -26.8497    1.5262   30.1936 C   0  0  0  0  0  0  0  0  0  0  0  0
  -26.1423    1.5326   31.0526 C   0  0  0  0  0  0  0  0  0  0  0  0
  -25.3636    1.9616   31.6028 C   0  0  0  0  0  0  0  0  0  0  0  0
  -24.3286    2.4366   32.3531 C   0  0  0  0  0  0  0  0  0  0  0  0
  1  2  2  0
  2  3  1  0
  2  4  1  0
  4 10  1  0
  4 11  1  0
 11 12  2  3
 12 13  1  0
 13 14  3  0
  3  5  2  0
  5  7  1  0
  7  9  2  0
  9  8  1  0
  8  6  2  0
  6  3  1  0
M  END

$$$$
