No_4492-gen_results/8p0m/2024-11-27-11-27-31/
     RDKit          3D

 10  9  0  0  0  0  0  0  0  0999 V2000
  -28.1493   -0.8198   28.9079 Cl  0  0  0  0  0  0  0  0  0  0  0  0
  -27.8339    0.4961   29.0598 C   0  0  0  0  0  0  0  0  0  0  0  0
  -27.8833    1.0376   30.1944 F   0  0  0  0  0  0  0  0  0  0  0  0
  -27.4481    1.3047   27.9430 C   0  0  0  0  0  0  0  0  0  0  0  0
  -27.2516    2.5081   28.0982 C   0  0  0  0  0  0  0  0  0  0  0  0
  -26.5389    3.3543   27.1293 C   0  0  0  0  0  0  0  0  0  0  0  0
  -26.1657    4.7557   27.2896 C   0  0  0  0  0  0  0  0  0  0  0  0
  -26.4995    5.3545   28.5230 C   0  0  0  0  0  0  0  0  0  0  0  0
  -27.1117    4.5810   29.4692 C   0  0  0  0  0  0  0  0  0  0  0  0
  -27.3957    3.3068   29.2535 C   0  0  0  0  0  0  0  0  0  0  0  0
  1  2  1  0
  2  3  1  0
  2  4  1  0
  4  5  2  3
  5  6  1  0
  6  7  2  3
  7  8  1  0
  8  9  2  0
  5 10  1  0
M  END

$$$$
