No_4995-gen_results/8p0m/2024-11-27-11-27-31/
     RDKit          3D

 14 15  0  0  0  0  0  0  0  0999 V2000
  -28.0162   -0.8135   28.8779 C   0  0  0  0  0  0  0  0  0  0  0  0
  -28.4690   -0.7850   29.8287 C   0  0  0  0  0  0  0  0  0  0  0  0
  -27.1356    0.2359   28.5352 C   0  0  0  0  0  0  0  0  0  0  0  0
  -26.8745    1.2825   29.3982 C   0  0  0  0  0  0  0  0  0  0  0  0
  -28.3613    0.1987   30.9244 C   0  0  0  0  0  0  0  0  0  0  0  0
  -27.5277    1.2234   30.6356 C   0  0  0  0  0  0  0  0  0  0  0  0
  -26.3879    0.2914   27.2334 C   0  0  0  0  0  0  0  0  0  0  0  0
  -25.1510    0.3034   27.2565 C   0  0  0  0  0  0  0  0  0  0  0  0
  -24.2763    0.0440   28.3453 C   0  0  0  0  0  0  0  0  0  0  0  0
  -22.9638    0.5707   28.3990 C   0  0  0  0  0  0  0  0  0  0  0  0
  -22.4977    1.4011   27.3602 C   0  0  0  0  0  0  0  0  0  0  0  0
  -23.3507    1.7943   26.3482 C   0  0  0  0  0  0  0  0  0  0  0  0
  -24.6532    1.3388   26.2912 C   0  0  0  0  0  0  0  0  0  0  0  0
  -26.9931   -0.3227   26.2721 O   0  0  0  0  0  0  0  0  0  0  0  0
  3  7  1  0
  7  8  1  0
  7 14  2  0
  8  9  2  0
  9 10  1  0
 10 11  2  0
 11 12  1  0
 12 13  2  0
 13  8  1  0
  1  2  2  0
  2  5  1  0
  5  6  2  0
  6  4  1  0
  4  3  2  0
  3  1  1  0
M  END

$$$$
