No_4371-gen_results/8p0m/2024-11-27-11-27-31/
     RDKit          3D

 11 11  0  0  0  0  0  0  0  0999 V2000
  -28.1493   -0.8198   28.9079 Cl  0  0  0  0  0  0  0  0  0  0  0  0
  -27.8339    0.4961   29.0598 C   0  0  0  0  0  0  0  0  0  0  0  0
  -27.5135    1.2383   28.0485 C   0  0  0  0  0  0  0  0  0  0  0  0
  -27.0548    2.6251   28.1330 C   0  0  0  0  0  0  0  0  0  0  0  0
  -26.9438    3.1838   29.4305 C   0  0  0  0  0  0  0  0  0  0  0  0
  -27.2205    2.3582   30.5116 C   0  0  0  0  0  0  0  0  0  0  0  0
  -27.5987    1.0586   30.3700 C   0  0  0  0  0  0  0  0  0  0  0  0
  -26.4783    4.5613   29.5893 C   0  0  0  0  0  0  0  0  0  0  0  0
  -25.7737    4.6509   30.6715 F   0  0  0  0  0  0  0  0  0  0  0  0
  -27.4592    5.4167   29.7443 F   0  0  0  0  0  0  0  0  0  0  0  0
  -25.6890    4.9449   28.5793 F   0  0  0  0  0  0  0  0  0  0  0  0
  1  2  1  0
  5  8  1  0
  8  9  1  0
  8 10  1  0
  8 11  1  0
  2  3  2  0
  3  4  1  0
  4  5  2  0
  5  6  1  0
  6  7  2  0
  7  2  1  0
M  END

$$$$
