No_4814-gen_results/8p0m/2024-11-27-11-27-31/
     RDKit          3D

 24 25  0  0  0  0  0  0  0  0999 V2000
  -28.0162   -0.8135   28.8779 C   0  0  0  0  0  0  0  0  0  0  0  0
  -27.0636   -0.1189   28.6079 C   0  0  0  0  0  0  0  0  0  0  0  0
  -26.8756    1.1325   28.9134 C   0  0  0  0  0  0  0  0  0  0  0  0
  -25.6883    1.9515   28.5672 C   0  0  0  0  0  0  0  0  0  0  0  0
  -24.6394    1.2834   27.8753 C   0  0  0  0  0  0  0  0  0  0  0  0
  -24.8068   -0.0513   27.6040 C   0  0  0  0  0  0  0  0  0  0  0  0
  -25.9019   -0.7670   27.9511 C   0  0  0  0  0  0  0  0  0  0  0  0
  -28.7095   -0.5833   30.0504 N   0  0  0  0  0  0  0  0  0  0  0  0
  -23.4625    1.9806   27.4675 C   0  0  0  0  0  0  0  0  0  0  0  0
  -23.4437    2.6777   26.5220 O   0  0  0  0  0  0  0  0  0  0  0  0
  -22.2280    1.6539   28.0932 N   0  0  0  0  0  0  0  0  0  0  0  0
  -29.9356   -1.1539   30.4083 C   0  0  0  0  0  0  0  0  0  0  0  0
  -30.5307   -1.8841   29.5796 C   0  0  0  0  0  0  0  0  0  0  0  0
  -30.7971   -3.0506   29.8694 O   0  0  0  0  0  0  0  0  0  0  0  0
  -31.0732   -1.4481   28.5072 O   0  0  0  0  0  0  0  0  0  0  0  0
  -30.3262   -0.9957   31.6533 O   0  0  0  0  0  0  0  0  0  0  0  0
  -22.1065    0.8808   29.1269 O   0  0  0  0  0  0  0  0  0  0  0  0
  -25.5229    3.3648   28.9370 C   0  0  0  0  0  0  0  0  0  0  0  0
  -26.3834    4.2826   28.1870 C   0  0  0  0  0  0  0  0  0  0  0  0
  -27.2202    4.8350   28.7603 C   0  0  0  0  0  0  0  0  0  0  0  0
  -27.9792    5.9747   28.1732 C   0  0  0  0  0  0  0  0  0  0  0  0
  -27.5956    6.3292   26.8517 C   0  0  0  0  0  0  0  0  0  0  0  0
  -26.5348    5.6536   26.2773 C   0  0  0  0  0  0  0  0  0  0  0  0
  -25.8264    4.6846   26.8932 C   0  0  0  0  0  0  0  0  0  0  0  0
  1  8  1  0
  5  9  1  0
  9 10  2  0
  9 11  1  0
  8 12  1  0
 12 13  1  0
 13 14  2  0
 13 15  1  0
 12 16  2  0
 11 17  2  0
  4 18  1  0
 18 19  1  0
  1  2  1  0
  2  3  2  0
  3  4  1  0
  4  5  2  0
  5  6  1  0
  6  7  2  0
  7  2  1  0
 19 20  2  0
 20 21  1  0
 21 22  2  0
 22 23  1  0
 23 24  2  0
 24 19  1  0
M  END

$$$$
