No_4934-gen_results/8p0m/2024-11-27-11-27-31/
     RDKit          3D

  8  8  0  0  0  0  0  0  0  0999 V2000
  -28.0162   -0.8135   28.8779 C   0  0  0  0  0  0  0  0  0  0  0  0
  -27.1876   -0.3590   28.4524 N   0  0  0  0  0  0  0  0  0  0  0  0
  -29.1992    0.0398   28.9632 C   0  0  0  0  0  0  0  0  0  0  0  0
  -27.3288    0.8806   27.8664 C   0  0  0  0  0  0  0  0  0  0  0  0
  -28.6331    1.1276   28.1656 C   0  0  0  0  0  0  0  0  0  0  0  0
  -25.7101   -0.9230   28.3374 C   0  0  0  0  0  0  0  0  0  0  0  0
  -25.3555   -1.7462   29.1549 C   0  0  0  0  0  0  0  0  0  0  0  0
  -23.9949   -2.3335   29.0504 C   0  0  0  0  0  0  0  0  0  0  0  0
  1  2  1  0
  1  3  2  0
  2  4  1  0
  3  5  1  0
  4  5  1  0
  2  6  1  0
  6  7  2  3
  7  8  1  0
M  END

$$$$
