No_4725-gen_results/8p0m/2024-11-27-11-27-31/
     RDKit          3D

 20 21  0  0  0  0  0  0  0  0999 V2000
  -28.1229   -1.3353   28.4874 O   0  0  0  0  0  0  0  0  0  0  0  0
  -28.5208   -0.4363   29.0779 C   0  0  0  0  0  0  0  0  0  0  0  0
  -28.5894    0.5916   28.9464 C   0  0  0  0  0  0  0  0  0  0  0  0
  -29.1246   -0.9399   30.4266 N   0  0  0  0  0  0  0  0  0  0  0  0
  -27.6200    1.2738   28.1389 C   0  0  0  0  0  0  0  0  0  0  0  0
  -26.2751    0.9745   28.4777 C   0  0  0  0  0  0  0  0  0  0  0  0
  -25.1582    1.4584   27.6422 C   0  0  0  0  0  0  0  0  0  0  0  0
  -25.4377    2.2668   26.5667 C   0  0  0  0  0  0  0  0  0  0  0  0
  -26.7337    2.5948   26.2478 C   0  0  0  0  0  0  0  0  0  0  0  0
  -27.7492    2.1320   27.0157 C   0  0  0  0  0  0  0  0  0  0  0  0
  -29.1656   -2.3685   30.8061 C   0  0  0  0  0  0  0  0  0  0  0  0
  -23.7723    1.1187   27.9889 C   0  0  0  0  0  0  0  0  0  0  0  0
  -22.7300    1.8947   27.6588 C   0  0  0  0  0  0  0  0  0  0  0  0
  -23.5261   -0.1269   28.6943 C   0  0  0  0  0  0  0  0  0  0  0  0
  -21.3803    1.5140   27.9940 C   0  0  0  0  0  0  0  0  0  0  0  0
  -22.2061   -0.4840   29.0416 C   0  0  0  0  0  0  0  0  0  0  0  0
  -21.1441    0.3696   28.6467 C   0  0  0  0  0  0  0  0  0  0  0  0
  -30.3956   -0.3270   30.7563 C   0  0  0  0  0  0  0  0  0  0  0  0
  -27.9937   -2.7916   31.1302 C   0  0  0  0  0  0  0  0  0  0  0  0
  -27.1690   -2.9495   29.9760 C   0  0  0  0  0  0  0  0  0  0  0  0
  1  2  2  0
  2  3  1  0
  2  4  1  0
  3  5  1  0
  4 11  1  0
  7 12  1  0
  4 18  1  0
 11 19  2  3
 19 20  1  0
  5  6  2  0
  6  7  1  0
  7  8  2  0
  8  9  1  0
  9 10  2  0
 10  5  1  0
 12 13  2  0
 13 15  1  0
 15 17  2  0
 17 16  1  0
 16 14  2  0
 14 12  1  0
M  END

$$$$
