No_4825-gen_results/8p0m/2024-11-27-11-27-31/
     RDKit          3D

 18 19  0  0  0  0  0  0  0  0999 V2000
  -28.1229   -1.3353   28.4874 O   0  0  0  0  0  0  0  0  0  0  0  0
  -27.4806   -0.4044   28.7094 C   0  0  0  0  0  0  0  0  0  0  0  0
  -26.3804   -0.0867   27.9394 C   0  0  0  0  0  0  0  0  0  0  0  0
  -27.6664    0.4468   29.8988 N   0  0  0  0  0  0  0  0  0  0  0  0
  -25.1773   -0.4388   28.3946 C   0  0  0  0  0  0  0  0  0  0  0  0
  -26.5259    0.6036   26.6867 C   0  0  0  0  0  0  0  0  0  0  0  0
  -23.9372    0.0372   27.6524 C   0  0  0  0  0  0  0  0  0  0  0  0
  -25.3755    0.9746   25.9410 C   0  0  0  0  0  0  0  0  0  0  0  0
  -24.0997    0.7141   26.4562 C   0  0  0  0  0  0  0  0  0  0  0  0
  -28.7539    0.1002   30.7927 C   0  0  0  0  0  0  0  0  0  0  0  0
  -26.8497    1.5262   30.1936 C   0  0  0  0  0  0  0  0  0  0  0  0
  -27.3084    2.6179   30.3073 C   0  0  0  0  0  0  0  0  0  0  0  0
  -27.1534    3.5498   29.7375 C   0  0  0  0  0  0  0  0  0  0  0  0
  -26.4114    3.5707   28.4837 C   0  0  0  0  0  0  0  0  0  0  0  0
  -25.6301    4.7152   28.1674 C   0  0  0  0  0  0  0  0  0  0  0  0
  -25.7620    5.8512   28.8570 C   0  0  0  0  0  0  0  0  0  0  0  0
  -26.4917    5.9251   29.9991 C   0  0  0  0  0  0  0  0  0  0  0  0
  -27.1041    4.8578   30.4766 C   0  0  0  0  0  0  0  0  0  0  0  0
  1  2  2  0
  2  3  1  0
  2  4  1  0
  4 10  1  0
  4 11  1  0
 11 12  2  3
 12 13  1  0
 13 14  2  0
 14 15  1  0
 15 16  2  0
 16 17  1  0
 17 18  2  0
 18 13  1  0
  3  5  2  0
  5  7  1  0
  7  9  2  0
  9  8  1  0
  8  6  2  0
  6  3  1  0
M  END

$$$$
