No_466-gen_results/8p0m/2024-11-27-11-27-31/
     RDKit          3D

 27 29  0  0  0  0  0  0  0  0999 V2000
  -28.0162   -0.8135   28.8779 C   0  0  0  0  0  0  0  0  0  0  0  0
  -27.0636   -0.1190   28.6079 C   0  0  0  0  0  0  0  0  0  0  0  0
  -25.7923   -0.4302   29.0761 C   0  0  0  0  0  0  0  0  0  0  0  0
  -25.5756   -1.5654   29.9363 C   0  0  0  0  0  0  0  0  0  0  0  0
  -26.7354   -2.3004   30.2173 C   0  0  0  0  0  0  0  0  0  0  0  0
  -27.9184   -1.9537   29.7629 C   0  0  0  0  0  0  0  0  0  0  0  0
  -29.0001   -2.7012   30.1151 O   0  0  0  0  0  0  0  0  0  0  0  0
  -24.5290    0.3490   28.7998 C   0  0  0  0  0  0  0  0  0  0  0  0
  -24.1172    1.3368   29.6649 C   0  0  0  0  0  0  0  0  0  0  0  0
  -22.9715    2.1021   29.3757 C   0  0  0  0  0  0  0  0  0  0  0  0
  -22.1955    1.8326   28.1865 C   0  0  0  0  0  0  0  0  0  0  0  0
  -22.7138    0.9368   27.2972 C   0  0  0  0  0  0  0  0  0  0  0  0
  -23.8267    0.2198   27.5847 C   0  0  0  0  0  0  0  0  0  0  0  0
  -30.1260   -2.1337   30.5788 C   0  0  0  0  0  0  0  0  0  0  0  0
  -30.5649   -2.8392   31.7028 C   0  0  0  0  0  0  0  0  0  0  0  0
  -31.5449   -2.5385   32.1500 O   0  0  0  0  0  0  0  0  0  0  0  0
  -29.6769   -3.5483   32.4621 N   0  0  0  0  0  0  0  0  0  0  0  0
  -27.1864    1.2448   27.5255 Cl  0  0  0  0  0  0  0  0  0  0  0  0
  -29.7188   -4.4911   32.8099 C   0  0  0  0  0  0  0  0  0  0  0  0
  -31.1661   -2.1382   29.4645 C   0  0  0  0  0  0  0  0  0  0  0  0
  -32.2820   -1.7992   29.7576 O   0  0  0  0  0  0  0  0  0  0  0  0
  -32.9789   -1.0403   28.7611 C   0  0  0  0  0  0  0  0  0  0  0  0
  -33.0988    0.2746   28.9084 C   0  0  0  0  0  0  0  0  0  0  0  0
  -33.6633    1.0656   27.9259 C   0  0  0  0  0  0  0  0  0  0  0  0
  -34.2571    0.4199   26.8358 C   0  0  0  0  0  0  0  0  0  0  0  0
  -33.4939   -1.6445   27.6222 C   0  0  0  0  0  0  0  0  0  0  0  0
  -34.1387   -0.9219   26.6788 C   0  0  0  0  0  0  0  0  0  0  0  0
  6  7  1  0
  3  8  1  0
  7 14  1  0
 14 15  1  0
 15 16  2  0
 15 17  1  0
  2 18  1  0
 17 19  2  0
 14 20  1  0
 20 21  1  0
 21 22  1  0
  1  2  2  0
  2  3  1  0
  3  4  2  0
  4  5  1  0
  5  6  2  0
  6  1  1  0
 22 23  2  0
 23 24  1  0
 24 25  2  0
 25 27  1  0
 27 26  2  0
 26 22  1  0
  8  9  2  0
  9 10  1  0
 10 11  2  0
 11 12  1  0
 12 13  2  0
 13  8  1  0
M  END

$$$$
