No_4887-gen_results/8p0m/2024-11-27-11-27-31/
     RDKit          3D

 25 27  0  0  0  0  0  0  0  0999 V2000
  -28.0162   -0.8135   28.8779 C   0  0  0  0  0  0  0  0  0  0  0  0
  -27.0636   -0.1189   28.6079 C   0  0  0  0  0  0  0  0  0  0  0  0
  -25.7647   -0.3897   29.0360 C   0  0  0  0  0  0  0  0  0  0  0  0
  -25.5296   -1.5302   29.9014 C   0  0  0  0  0  0  0  0  0  0  0  0
  -26.6888   -2.2893   30.1810 C   0  0  0  0  0  0  0  0  0  0  0  0
  -27.8727   -1.9508   29.7373 C   0  0  0  0  0  0  0  0  0  0  0  0
  -24.5491    0.4100   28.7341 C   0  0  0  0  0  0  0  0  0  0  0  0
  -23.3309    0.0437   29.0569 C   0  0  0  0  0  0  0  0  0  0  0  0
  -23.1912   -1.2209   29.7412 C   0  0  0  0  0  0  0  0  0  0  0  0
  -24.2188   -1.9602   30.2014 C   0  0  0  0  0  0  0  0  0  0  0  0
  -22.0328    0.5695   28.7024 C   0  0  0  0  0  0  0  0  0  0  0  0
  -21.9728    1.7815   28.0847 N   0  0  0  0  0  0  0  0  0  0  0  0
  -20.9264   -0.0329   28.8418 O   0  0  0  0  0  0  0  0  0  0  0  0
  -29.2144   -2.9712   30.3126 Cl  0  0  0  0  0  0  0  0  0  0  0  0
  -27.1956    1.0716   27.6712 C   0  0  0  0  0  0  0  0  0  0  0  0
  -27.4260    0.8687   26.4905 O   0  0  0  0  0  0  0  0  0  0  0  0
  -27.0135    2.2651   28.1543 O   0  0  0  0  0  0  0  0  0  0  0  0
  -26.6712    3.3208   27.3932 C   0  0  0  0  0  0  0  0  0  0  0  0
  -27.0772    4.4110   27.5343 C   0  0  0  0  0  0  0  0  0  0  0  0
  -28.0723    4.8239   28.1825 C   0  0  0  0  0  0  0  0  0  0  0  0
  -28.8043    4.0252   28.9437 C   0  0  0  0  0  0  0  0  0  0  0  0
  -29.9117    4.5837   29.5523 N   0  0  0  0  0  0  0  0  0  0  0  0
  -30.4562    5.5003   29.2512 C   0  0  0  0  0  0  0  0  0  0  0  0
  -29.8800    6.4933   28.3887 C   0  0  0  0  0  0  0  0  0  0  0  0
  -28.6794    6.1662   27.7856 C   0  0  0  0  0  0  0  0  0  0  0  0
  8 11  1  0
 11 12  1  0
 11 13  2  0
  6 14  1  0
  2 15  1  0
 15 16  2  0
 15 17  1  0
 17 18  1  0
 18 19  2  3
 19 20  1  0
  1  2  2  0
  2  3  1  0
  4  5  1  0
  5  6  2  0
  6  1  1  0
  3  4  2  0
  4 10  1  0
 10  9  2  0
  9  8  1  0
  8  7  2  0
  7  3  1  0
 20 21  2  0
 21 22  1  0
 22 23  2  0
 23 24  1  0
 24 25  2  0
 25 20  1  0
M  END

$$$$
