No_4054-gen_results/8p0m/2024-11-27-11-27-31/
     RDKit          3D

 28 31  0  0  0  0  0  0  0  0999 V2000
  -28.0162   -0.8135   28.8779 C   0  0  0  0  0  0  0  0  0  0  0  0
  -28.4690   -0.7850   29.8287 C   0  0  0  0  0  0  0  0  0  0  0  0
  -28.1816    0.4277   28.1134 C   0  0  0  0  0  0  0  0  0  0  0  0
  -27.4498    0.6435   26.8500 C   0  0  0  0  0  0  0  0  0  0  0  0
  -27.8596    1.4573   25.9076 C   0  0  0  0  0  0  0  0  0  0  0  0
  -29.4263    0.1097   30.4178 C   0  0  0  0  0  0  0  0  0  0  0  0
  -29.6233    1.2198   29.7351 C   0  0  0  0  0  0  0  0  0  0  0  0
  -28.9609    1.4529   28.5513 C   0  0  0  0  0  0  0  0  0  0  0  0
  -27.1733    1.5743   24.7028 C   0  0  0  0  0  0  0  0  0  0  0  0
  -26.0892    0.7468   24.4126 C   0  0  0  0  0  0  0  0  0  0  0  0
  -25.6364   -0.1191   25.3972 C   0  0  0  0  0  0  0  0  0  0  0  0
  -26.2807   -0.2063   26.5817 C   0  0  0  0  0  0  0  0  0  0  0  0
  -30.5459    2.3201   30.2418 C   0  0  0  0  0  0  0  0  0  0  0  0
  -31.1534    2.9914   29.5934 O   0  0  0  0  0  0  0  0  0  0  0  0
  -30.5073    2.4112   31.5995 O   0  0  0  0  0  0  0  0  0  0  0  0
  -28.2804   -2.1676   30.7077 C   0  0  0  0  0  0  0  0  0  0  0  0
  -27.4744   -2.9602   30.3412 O   0  0  0  0  0  0  0  0  0  0  0  0
  -28.9707   -2.3091   31.7881 O   0  0  0  0  0  0  0  0  0  0  0  0
  -31.5015    3.0063   32.2774 C   0  0  0  0  0  0  0  0  0  0  0  0
  -31.2597    2.9098   33.6494 C   0  0  0  0  0  0  0  0  0  0  0  0
  -30.0226    2.7999   34.1305 C   0  0  0  0  0  0  0  0  0  0  0  0
  -29.7319    2.5143   35.5376 C   0  0  0  0  0  0  0  0  0  0  0  0
  -30.7589    2.4273   36.4184 C   0  0  0  0  0  0  0  0  0  0  0  0
  -32.0349    2.5790   35.9512 C   0  0  0  0  0  0  0  0  0  0  0  0
  -32.2856    2.7646   34.5977 C   0  0  0  0  0  0  0  0  0  0  0  0
  -33.6445    2.8805   34.1150 C   0  0  0  0  0  0  0  0  0  0  0  0
  -33.9431    2.4773   32.8845 C   0  0  0  0  0  0  0  0  0  0  0  0
  -32.7973    2.1450   32.0250 C   0  0  0  0  0  0  0  0  0  0  0  0
  3  4  1  0
  7 13  1  0
 13 14  2  0
 13 15  1  0
  2 16  1  0
 16 17  2  0
 16 18  1  0
 15 19  1  0
 20 21  2  0
 21 22  1  0
 22 23  2  0
 23 24  1  0
 24 25  2  0
 19 20  1  0
 20 25  1  0
 25 26  1  0
 26 27  2  0
 27 28  1  0
 28 19  2  0
  4  5  2  0
  5  9  1  0
  9 10  2  0
 10 11  1  0
 11 12  2  0
 12  4  1  0
  1  2  2  0
  2  6  1  0
  6  7  2  0
  7  8  1  0
  8  3  2  0
  3  1  1  0
M  END

$$$$
