No_4244-gen_results/8p0m/2024-11-27-11-27-31/
     RDKit          3D

 35 39  0  0  0  0  0  0  0  0999 V2000
  -28.0162   -0.8135   28.8779 C   0  0  0  0  0  0  0  0  0  0  0  0
  -28.4690   -0.7850   29.8287 C   0  0  0  0  0  0  0  0  0  0  0  0
  -28.1960    0.3478   28.0550 C   0  0  0  0  0  0  0  0  0  0  0  0
  -29.0191    1.3501   28.3782 C   0  0  0  0  0  0  0  0  0  0  0  0
  -29.4107    0.1803   30.3782 C   0  0  0  0  0  0  0  0  0  0  0  0
  -29.2236    2.4924   27.5425 C   0  0  0  0  0  0  0  0  0  0  0  0
  -29.5873    1.2242   29.6185 C   0  0  0  0  0  0  0  0  0  0  0  0
  -29.2305    2.7694   26.4507 C   0  0  0  0  0  0  0  0  0  0  0  0
  -29.4381    4.0527   25.7412 C   0  0  0  0  0  0  0  0  0  0  0  0
  -29.6457    5.1685   26.5511 C   0  0  0  0  0  0  0  0  0  0  0  0
  -29.6874    5.0178   27.8768 C   0  0  0  0  0  0  0  0  0  0  0  0
  -29.4524    3.8218   28.4701 C   0  0  0  0  0  0  0  0  0  0  0  0
  -27.3638    0.3544   26.5276 Cl  0  0  0  0  0  0  0  0  0  0  0  0
  -28.2348   -2.2742   30.9278 Cl  0  0  0  0  0  0  0  0  0  0  0  0
  -30.1820    0.1264   31.6973 C   0  0  0  0  0  0  0  0  0  0  0  0
  -30.8481   -0.5631   32.0686 C   0  0  0  0  0  0  0  0  0  0  0  0
  -31.3395   -1.7481   31.3205 C   0  0  0  0  0  0  0  0  0  0  0  0
  -31.5942   -1.7032   30.1528 C   0  0  0  0  0  0  0  0  0  0  0  0
  -32.2008   -2.8470   29.4059 C   0  0  0  0  0  0  0  0  0  0  0  0
  -32.1535   -4.0490   30.0507 C   0  0  0  0  0  0  0  0  0  0  0  0
  -31.8195   -4.1349   31.3946 C   0  0  0  0  0  0  0  0  0  0  0  0
  -31.4526   -3.0269   32.1023 C   0  0  0  0  0  0  0  0  0  0  0  0
  -32.6795   -5.2386   29.2937 C   0  0  0  0  0  0  0  0  0  0  0  0
  -31.9764   -5.6187   28.3172 C   0  0  0  0  0  0  0  0  0  0  0  0
  -30.8187   -4.9979   27.9489 C   0  0  0  0  0  0  0  0  0  0  0  0
  -32.0280   -7.0299   27.8764 C   0  0  0  0  0  0  0  0  0  0  0  0
  -32.7434   -7.2977   26.9509 C   0  0  0  0  0  0  0  0  0  0  0  0
  -33.3998   -6.4850   26.2925 C   0  0  0  0  0  0  0  0  0  0  0  0
  -33.4049   -5.1424   26.5783 C   0  0  0  0  0  0  0  0  0  0  0  0
  -34.4932   -4.2842   26.3204 C   0  0  0  0  0  0  0  0  0  0  0  0
  -34.3868   -2.8804   26.3876 C   0  0  0  0  0  0  0  0  0  0  0  0
  -33.1662   -2.3086   26.0432 C   0  0  0  0  0  0  0  0  0  0  0  0
  -31.9943   -3.1877   26.0592 C   0  0  0  0  0  0  0  0  0  0  0  0
  -32.1519   -4.4348   26.2134 C   0  0  0  0  0  0  0  0  0  0  0  0
  -31.0527   -5.1740   26.3677 O   0  0  0  0  0  0  0  0  0  0  0  0
  4  6  1  0
  3 13  1  0
  2 14  1  0
  5 15  1  0
 15 16  2  3
 16 17  1  0
 20 23  1  0
 23 24  1  0
 24 25  2  3
 24 26  1  0
 26 27  1  0
 27 28  1  0
 28 29  1  0
 25 35  1  0
 34 35  1  0
 17 18  2  0
 18 19  1  0
 19 20  2  0
 20 21  1  0
 21 22  2  0
 22 17  1  0
  6  8  2  0
  8  9  1  0
  9 10  2  0
 10 11  1  0
 11 12  2  0
 12  6  1  0
 29 30  2  0
 30 31  1  0
 31 32  2  0
 32 33  1  0
 33 34  2  0
 34 29  1  0
  1  2  2  0
  2  5  1  0
  5  7  2  0
  7  4  1  0
  4  3  2  0
  3  1  1  0
M  END

$$$$
