No_510-gen_results/8p0m/2024-11-27-11-27-31/
     RDKit          3D

 15 16  0  0  0  0  0  0  0  0999 V2000
  -28.0162   -0.8135   28.8779 C   0  0  0  0  0  0  0  0  0  0  0  0
  -27.0636   -0.1190   28.6079 C   0  0  0  0  0  0  0  0  0  0  0  0
  -27.0010    0.6913   27.4910 C   0  0  0  0  0  0  0  0  0  0  0  0
  -25.8548    1.4825   27.0830 C   0  0  0  0  0  0  0  0  0  0  0  0
  -24.6901    1.4526   27.8807 C   0  0  0  0  0  0  0  0  0  0  0  0
  -24.7379    0.6010   29.0416 C   0  0  0  0  0  0  0  0  0  0  0  0
  -25.8234   -0.1688   29.3887 C   0  0  0  0  0  0  0  0  0  0  0  0
  -29.2150   -0.1725   29.0132 N   0  0  0  0  0  0  0  0  0  0  0  0
  -30.2463   -0.7735   29.6388 C   0  0  0  0  0  0  0  0  0  0  0  0
  -23.5190    2.2034   27.5550 C   0  0  0  0  0  0  0  0  0  0  0  0
  -22.8328    2.5396   28.4944 F   0  0  0  0  0  0  0  0  0  0  0  0
  -23.2426    2.4690   26.3343 F   0  0  0  0  0  0  0  0  0  0  0  0
  -29.9913   -1.8955   30.3656 C   0  0  0  0  0  0  0  0  0  0  0  0
  -28.7442   -2.5204   30.4274 C   0  0  0  0  0  0  0  0  0  0  0  0
  -27.7148   -1.8592   29.8614 C   0  0  0  0  0  0  0  0  0  0  0  0
  1  2  1  0
  5 10  1  0
 10 11  1  0
 10 12  1  0
  1  8  2  0
  8  9  1  0
  9 13  2  0
 13 14  1  0
 14 15  2  0
 15  1  1  0
  2  3  2  0
  3  4  1  0
  4  5  2  0
  5  6  1  0
  6  7  2  0
  7  2  1  0
M  END

$$$$
