No_526-gen_results/8p0m/2024-11-27-11-27-31/
     RDKit          3D

 18 20  0  0  0  0  0  0  0  0999 V2000
  -28.0162   -0.8135   28.8779 C   0  0  0  0  0  0  0  0  0  0  0  0
  -27.0636   -0.1190   28.6079 C   0  0  0  0  0  0  0  0  0  0  0  0
  -26.9287    1.1713   29.0083 C   0  0  0  0  0  0  0  0  0  0  0  0
  -27.9560    1.7411   29.7840 C   0  0  0  0  0  0  0  0  0  0  0  0
  -29.0569   -0.3271   29.7466 C   0  0  0  0  0  0  0  0  0  0  0  0
  -28.9828    0.9722   30.1516 C   0  0  0  0  0  0  0  0  0  0  0  0
  -25.8907   -0.6263   27.7857 C   0  0  0  0  0  0  0  0  0  0  0  0
  -24.7182   -1.0610   28.6129 C   0  0  0  0  0  0  0  0  0  0  0  0
  -24.6426   -2.2493   29.0885 C   0  0  0  0  0  0  0  0  0  0  0  0
  -23.5080   -2.6349   29.8098 C   0  0  0  0  0  0  0  0  0  0  0  0
  -22.5950   -1.6326   30.0734 C   0  0  0  0  0  0  0  0  0  0  0  0
  -23.6005   -0.2616   29.0496 C   0  0  0  0  0  0  0  0  0  0  0  0
  -23.5625    0.8227   28.6200 C   0  0  0  0  0  0  0  0  0  0  0  0
  -22.2410    1.5315   28.5097 C   0  0  0  0  0  0  0  0  0  0  0  0
  -22.1741    2.6561   27.6167 C   0  0  0  0  0  0  0  0  0  0  0  0
  -23.3282    2.9703   26.8258 C   0  0  0  0  0  0  0  0  0  0  0  0
  -24.5116    2.2818   26.9452 C   0  0  0  0  0  0  0  0  0  0  0  0
  -24.5238    1.2823   27.6978 C   0  0  0  0  0  0  0  0  0  0  0  0
  2  7  1  0
  7  8  1  0
  8  9  2  0
  9 10  1  0
 10 11  2  0
  8 12  1  0
 11 12  1  0
 12 13  1  0
 13 14  2  0
 14 15  1  0
 15 16  2  0
 16 17  1  0
 17 18  2  0
 18 13  1  0
  1  2  2  0
  2  3  1  0
  3  4  2  0
  4  6  1  0
  6  5  2  0
  5  1  1  0
M  END

$$$$
