No_508-gen_results/8p0m/2024-11-27-11-27-31/
     RDKit          3D

 15 15  0  0  0  0  0  0  0  0999 V2000
  -28.0162   -0.8135   28.8779 C   0  0  0  0  0  0  0  0  0  0  0  0
  -28.4690   -0.7850   29.8287 C   0  0  0  0  0  0  0  0  0  0  0  0
  -27.0871    0.2903   28.6377 C   0  0  0  0  0  0  0  0  0  0  0  0
  -26.0239    0.3644   29.2526 C   0  0  0  0  0  0  0  0  0  0  0  0
  -29.4161   -1.9279   30.1751 C   0  0  0  0  0  0  0  0  0  0  0  0
  -26.2326    0.1422   30.7730 C   0  0  0  0  0  0  0  0  0  0  0  0
  -27.3914   -0.7532   31.0134 C   0  0  0  0  0  0  0  0  0  0  0  0
  -29.2202   -2.9946   30.4480 O   0  0  0  0  0  0  0  0  0  0  0  0
  -30.7041   -1.4768   30.1604 O   0  0  0  0  0  0  0  0  0  0  0  0
  -24.6912    0.2406   29.0606 C   0  0  0  0  0  0  0  0  0  0  0  0
  -23.7968    0.7915   28.9015 C   0  0  0  0  0  0  0  0  0  0  0  0
  -22.3757    0.5064   28.5626 C   0  0  0  0  0  0  0  0  0  0  0  0
  -21.3521    1.3258   28.2318 C   0  0  0  0  0  0  0  0  0  0  0  0
  -21.8441    2.6628   27.8442 C   0  0  0  0  0  0  0  0  0  0  0  0
  -23.1875    2.9469   27.8367 C   0  0  0  0  0  0  0  0  0  0  0  0
  2  5  1  0
  5  8  2  0
  5  9  1  0
  4 10  1  0
 10 11  3  0
 11 12  1  0
 12 13  2  3
 13 14  1  0
 14 15  2  0
  1  2  2  0
  2  7  1  0
  7  6  2  0
  6  4  1  0
  4  3  2  0
  3  1  1  0
M  END

$$$$
