No_504-gen_results/8p0m/2024-11-27-11-27-31/
     RDKit          3D

 15 15  0  0  0  0  0  0  0  0999 V2000
  -28.0162   -0.8135   28.8779 C   0  0  0  0  0  0  0  0  0  0  0  0
  -27.0636   -0.1189   28.6079 C   0  0  0  0  0  0  0  0  0  0  0  0
  -27.0788    0.9846   29.1738 F   0  0  0  0  0  0  0  0  0  0  0  0
  -26.7804    0.1060   27.1177 C   0  0  0  0  0  0  0  0  0  0  0  0
  -25.8659   -0.7253   29.0882 F   0  0  0  0  0  0  0  0  0  0  0  0
  -29.3480   -0.2549   29.0014 C   0  0  0  0  0  0  0  0  0  0  0  0
  -29.4001    0.6382   29.7118 F   0  0  0  0  0  0  0  0  0  0  0  0
  -30.2433   -1.3115   29.3917 F   0  0  0  0  0  0  0  0  0  0  0  0
  -29.8219    0.0176   27.7647 F   0  0  0  0  0  0  0  0  0  0  0  0
  -27.3529    0.8148   26.3304 C   0  0  0  0  0  0  0  0  0  0  0  0
  -25.4608   -0.4436   26.5878 C   0  0  0  0  0  0  0  0  0  0  0  0
  -27.1381    0.9065   24.9258 C   0  0  0  0  0  0  0  0  0  0  0  0
  -25.0897   -0.1588   25.2892 C   0  0  0  0  0  0  0  0  0  0  0  0
  -25.9390    0.4948   24.4786 C   0  0  0  0  0  0  0  0  0  0  0  0
  -27.9252   -2.0340   29.2599 F   0  0  0  0  0  0  0  0  0  0  0  0
  1  2  1  0
  2  3  1  0
  2  4  1  0
  2  5  1  0
  1  6  1  0
  6  7  1  0
  6  8  1  0
  6  9  1  0
  1 15  1  0
  4 10  2  0
 10 12  1  0
 12 14  2  0
 14 13  1  0
 13 11  2  0
 11  4  1  0
M  END

$$$$
