No_595-gen_results/8p0m/2024-11-27-11-27-31/
     RDKit          3D

 29 33  0  0  0  0  0  0  0  0999 V2000
  -28.0162   -0.8135   28.8779 C   0  0  0  0  0  0  0  0  0  0  0  0
  -28.4690   -0.7850   29.8287 C   0  0  0  0  0  0  0  0  0  0  0  0
  -26.5042   -0.7777   28.8766 C   0  0  0  0  0  0  0  0  0  0  0  0
  -25.6540   -0.6597   27.7191 C   0  0  0  0  0  0  0  0  0  0  0  0
  -27.9180   -0.9374   31.1824 C   0  0  0  0  0  0  0  0  0  0  0  0
  -26.5423   -0.9399   31.2606 C   0  0  0  0  0  0  0  0  0  0  0  0
  -25.7832   -0.8935   30.1201 C   0  0  0  0  0  0  0  0  0  0  0  0
  -25.8989    0.3149   26.7473 C   0  0  0  0  0  0  0  0  0  0  0  0
  -26.7729    0.4751   26.2575 C   0  0  0  0  0  0  0  0  0  0  0  0
  -26.9520    1.5350   25.1864 C   0  0  0  0  0  0  0  0  0  0  0  0
  -28.1917    1.8421   24.6418 C   0  0  0  0  0  0  0  0  0  0  0  0
  -29.3074    1.0612   24.9673 C   0  0  0  0  0  0  0  0  0  0  0  0
  -29.1680    0.0720   25.8833 C   0  0  0  0  0  0  0  0  0  0  0  0
  -27.9870   -0.2209   26.5029 C   0  0  0  0  0  0  0  0  0  0  0  0
  -28.5344   -0.3235   27.6851 N   0  0  0  0  0  0  0  0  0  0  0  0
  -24.3654   -1.0031   30.2038 C   0  0  0  0  0  0  0  0  0  0  0  0
  -23.7000    0.1810   30.3449 C   0  0  0  0  0  0  0  0  0  0  0  0
  -22.4684    0.4176   29.6910 C   0  0  0  0  0  0  0  0  0  0  0  0
  -24.2228    1.2726   31.1842 C   0  0  0  0  0  0  0  0  0  0  0  0
  -23.6815    2.6429   30.9855 C   0  0  0  0  0  0  0  0  0  0  0  0
  -24.4537    3.6310   31.7079 C   0  0  0  0  0  0  0  0  0  0  0  0
  -25.5742    3.6044   31.8559 C   0  0  0  0  0  0  0  0  0  0  0  0
  -26.2370    2.2932   31.9776 C   0  0  0  0  0  0  0  0  0  0  0  0
  -25.5507    1.2338   31.4609 C   0  0  0  0  0  0  0  0  0  0  0  0
  -26.1339    0.2736   31.7718 N   0  0  0  0  0  0  0  0  0  0  0  0
  -22.3043    1.0409   28.4362 C   0  0  0  0  0  0  0  0  0  0  0  0
  -21.0761    1.1118   27.8362 C   0  0  0  0  0  0  0  0  0  0  0  0
  -26.2601    0.0721   33.4247 C   0  0  0  0  0  0  0  0  0  0  0  0
  -20.0551    0.4149   28.4689 C   0  0  0  0  0  0  0  0  0  0  0  0
  3  4  1  0
  4  8  1  0
  1 15  1  0
 14 15  1  0
  7 16  1  0
 16 17  1  0
 17 18  2  3
 17 19  1  0
  6 25  1  0
 24 25  1  0
 18 26  1  0
 26 27  2  3
 25 28  1  0
 27 29  1  0
  8  9  1  0
  9 10  2  0
 10 11  1  0
 11 12  2  0
 12 13  1  0
 13 14  2  0
 14  9  1  0
  1  2  2  0
  2  5  1  0
  5  6  2  0
  6  7  1  0
  7  3  2  0
  3  1  1  0
 19 20  2  0
 20 21  1  0
 21 22  2  0
 22 23  1  0
 23 24  2  0
 24 19  1  0
M  END

$$$$
