No_569-gen_results/8p0m/2024-11-27-11-27-31/
     RDKit          3D

 16 18  0  0  0  0  0  0  0  0999 V2000
  -28.0727   -1.2542   28.5316 F   0  0  0  0  0  0  0  0  0  0  0  0
  -27.3591   -0.3792   28.7224 C   0  0  0  0  0  0  0  0  0  0  0  0
  -26.3323   -0.6441   29.4520 C   0  0  0  0  0  0  0  0  0  0  0  0
  -26.9743    0.2865   27.4190 C   0  0  0  0  0  0  0  0  0  0  0  0
  -26.2056   -0.6552   30.7253 C   0  0  0  0  0  0  0  0  0  0  0  0
  -27.6916    0.8964   26.7158 N   0  0  0  0  0  0  0  0  0  0  0  0
  -28.0263    0.6822   29.3322 F   0  0  0  0  0  0  0  0  0  0  0  0
  -25.1524   -1.3455   28.7945 C   0  0  0  0  0  0  0  0  0  0  0  0
  -25.6471   -0.1209   26.7561 C   0  0  0  0  0  0  0  0  0  0  0  0
  -24.6163   -0.7157   27.6309 C   0  0  0  0  0  0  0  0  0  0  0  0
  -27.9141    0.9353   25.3523 C   0  0  0  0  0  0  0  0  0  0  0  0
  -27.3231    0.1345   24.6370 C   0  0  0  0  0  0  0  0  0  0  0  0
  -25.6519   -0.2812   25.3540 C   0  0  0  0  0  0  0  0  0  0  0  0
  -25.0410   -0.5173   31.4630 C   0  0  0  0  0  0  0  0  0  0  0  0
  -23.8899   -0.7329   30.9669 C   0  0  0  0  0  0  0  0  0  0  0  0
  -23.8614   -1.4685   29.6757 C   0  0  0  0  0  0  0  0  0  0  0  0
  1  2  1  0
  2  3  1  0
  2  4  1  0
  3  5  1  0
  2  7  1  0
  3  8  1  0
  8 10  1  0
  9 10  1  0
  5 14  3  0
 14 15  1  0
  8 16  1  0
 15 16  1  0
  4  6  2  0
  6 11  1  0
 11 12  2  0
 12 13  1  0
 13  9  2  0
  9  4  1  0
M  END

$$$$
