No_516-gen_results/8p0m/2024-11-27-11-27-31/
     RDKit          3D

 17 17  0  0  0  0  0  0  0  0999 V2000
  -28.0162   -0.8135   28.8779 C   0  0  0  0  0  0  0  0  0  0  0  0
  -28.4690   -0.7850   29.8287 C   0  0  0  0  0  0  0  0  0  0  0  0
  -28.1960    0.3478   28.0550 C   0  0  0  0  0  0  0  0  0  0  0  0
  -29.0191    1.3501   28.3782 C   0  0  0  0  0  0  0  0  0  0  0  0
  -29.6249    1.2683   29.6012 C   0  0  0  0  0  0  0  0  0  0  0  0
  -28.2739   -2.0256   30.8208 C   0  0  0  0  0  0  0  0  0  0  0  0
  -29.3528    0.1704   30.3589 C   0  0  0  0  0  0  0  0  0  0  0  0
  -27.6264   -2.8694   30.3907 F   0  0  0  0  0  0  0  0  0  0  0  0
  -29.5588   -2.5349   31.1616 F   0  0  0  0  0  0  0  0  0  0  0  0
  -27.6740   -1.8726   31.9744 F   0  0  0  0  0  0  0  0  0  0  0  0
  -27.4242    0.3811   26.6806 C   0  0  0  0  0  0  0  0  0  0  0  0
  -28.0508    0.3361   25.5545 N   0  0  0  0  0  0  0  0  0  0  0  0
  -25.9852    0.4354   26.6626 C   0  0  0  0  0  0  0  0  0  0  0  0
  -25.3938    0.5934   25.3848 C   0  0  0  0  0  0  0  0  0  0  0  0
  -29.4107    0.2477   25.5015 C   0  0  0  0  0  0  0  0  0  0  0  0
  -25.0795    0.4040   27.7754 C   0  0  0  0  0  0  0  0  0  0  0  0
  -26.1034    0.5117   24.2787 N   0  0  0  0  0  0  0  0  0  0  0  0
  2  6  1  0
  6  8  1  0
  6  9  1  0
  6 10  1  0
  3 11  1  0
 11 12  2  3
 11 13  1  0
 13 14  1  0
 12 15  1  0
 13 16  1  0
 14 17  1  0
  1  2  2  0
  2  7  1  0
  7  5  2  0
  5  4  1  0
  4  3  2  0
  3  1  1  0
M  END

$$$$
