No_539-gen_results/8p0m/2024-11-27-11-27-31/
     RDKit          3D

 13 13  0  0  0  0  0  0  0  0999 V2000
  -28.0162   -0.8135   28.8779 C   0  0  0  0  0  0  0  0  0  0  0  0
  -27.0636   -0.1189   28.6079 C   0  0  0  0  0  0  0  0  0  0  0  0
  -26.9716    0.7139   27.5060 C   0  0  0  0  0  0  0  0  0  0  0  0
  -25.8205    1.4910   27.1160 C   0  0  0  0  0  0  0  0  0  0  0  0
  -24.6562    1.4242   27.9180 C   0  0  0  0  0  0  0  0  0  0  0  0
  -23.4598    2.1165   27.6160 C   0  0  0  0  0  0  0  0  0  0  0  0
  -23.5068    2.7076   26.2939 C   0  0  0  0  0  0  0  0  0  0  0  0
  -25.8932   -0.0648   29.5767 C   0  0  0  0  0  0  0  0  0  0  0  0
  -24.7018    0.6377   29.2015 C   0  0  0  0  0  0  0  0  0  0  0  0
  -28.6867   -0.5346   30.0846 N   0  0  0  0  0  0  0  0  0  0  0  0
  -29.5727   -1.4058   30.6822 C   0  0  0  0  0  0  0  0  0  0  0  0
  -30.1684   -1.0405   31.9176 C   0  0  0  0  0  0  0  0  0  0  0  0
  -22.2402    1.8793   28.2231 C   0  0  0  0  0  0  0  0  0  0  0  0
  6  7  1  0
  1 10  1  0
 10 11  1  0
 11 12  2  0
  6 13  1  0
  6  5  1  0
  1  2  1  0
  2  3  2  0
  3  4  1  0
  4  5  2  0
  5  9  1  0
  9  8  2  0
  8  2  1  0
M  END

$$$$
