No_501-gen_results/8p0m/2024-11-27-11-27-31/
     RDKit          3D

 11 12  0  0  0  0  0  0  0  0999 V2000
  -28.0162   -0.8135   28.8779 C   0  0  0  0  0  0  0  0  0  0  0  0
  -27.0636   -0.1189   28.6079 C   0  0  0  0  0  0  0  0  0  0  0  0
  -27.0010    0.6913   27.4910 C   0  0  0  0  0  0  0  0  0  0  0  0
  -28.1373    0.7363   26.6350 C   0  0  0  0  0  0  0  0  0  0  0  0
  -29.2360    0.0765   27.0690 C   0  0  0  0  0  0  0  0  0  0  0  0
  -29.2177   -0.6429   28.1747 C   0  0  0  0  0  0  0  0  0  0  0  0
  -28.0030   -1.6604   30.1266 C   0  0  0  0  0  0  0  0  0  0  0  0
  -27.0435   -2.4948   30.2691 N   0  0  0  0  0  0  0  0  0  0  0  0
  -25.7647   -2.0663   30.2738 C   0  0  0  0  0  0  0  0  0  0  0  0
  -25.0291   -1.4564   29.1562 C   0  0  0  0  0  0  0  0  0  0  0  0
  -25.5527   -0.5136   28.7379 C   0  0  0  0  0  0  0  0  0  0  0  0
  1  7  1  0
  7  8  1  0
  8  9  2  0
  9 10  1  0
  2 11  1  0
 10 11  3  0
  1  2  1  0
  2  3  2  0
  3  4  1  0
  4  5  2  0
  5  6  1  0
  6  1  2  0
M  END

$$$$
