No_505-gen_results/8p0m/2024-11-27-11-27-31/
     RDKit          3D

 18 19  0  0  0  0  0  0  0  0999 V2000
  -28.0727   -1.2542   28.5316 F   0  0  0  0  0  0  0  0  0  0  0  0
  -27.3591   -0.3792   28.7224 C   0  0  0  0  0  0  0  0  0  0  0  0
  -26.3323   -0.6441   29.4520 C   0  0  0  0  0  0  0  0  0  0  0  0
  -25.2562    0.3203   29.7818 C   0  0  0  0  0  0  0  0  0  0  0  0
  -25.4242    1.6275   29.2026 C   0  0  0  0  0  0  0  0  0  0  0  0
  -26.5263    1.8254   28.4032 C   0  0  0  0  0  0  0  0  0  0  0  0
  -27.4513    0.8601   28.1355 C   0  0  0  0  0  0  0  0  0  0  0  0
  -28.5399    1.2022   27.2448 C   0  0  0  0  0  0  0  0  0  0  0  0
  -28.4879    1.9424   26.2706 N   0  0  0  0  0  0  0  0  0  0  0  0
  -29.8406    0.5958   27.4411 C   0  0  0  0  0  0  0  0  0  0  0  0
  -30.8440    0.8366   26.5494 C   0  0  0  0  0  0  0  0  0  0  0  0
  -29.4083    2.2891   25.3553 C   0  0  0  0  0  0  0  0  0  0  0  0
  -30.6572    1.7085   25.5214 C   0  0  0  0  0  0  0  0  0  0  0  0
  -24.2713    2.8198   29.5612 Cl  0  0  0  0  0  0  0  0  0  0  0  0
  -32.2149    0.4596   26.7086 C   0  0  0  0  0  0  0  0  0  0  0  0
  -32.5755   -0.1860   27.6765 O   0  0  0  0  0  0  0  0  0  0  0  0
  -33.0525    0.6112   25.7988 O   0  0  0  0  0  0  0  0  0  0  0  0
  -26.0770   -1.8242   30.0306 F   0  0  0  0  0  0  0  0  0  0  0  0
  1  2  1  0
  7  8  1  0
  5 14  1  0
 11 15  1  0
 15 16  1  0
 15 17  2  0
  3 18  1  0
  2  3  2  0
  3  4  1  0
  4  5  2  0
  5  6  1  0
  6  7  2  0
  7  2  1  0
  8  9  2  0
  9 12  1  0
 12 13  2  0
 13 11  1  0
 11 10  2  0
 10  8  1  0
M  END

$$$$
