No_544-gen_results/8p0m/2024-11-27-11-27-31/
     RDKit          3D

 30 33  0  0  0  0  0  0  0  0999 V2000
  -28.0162   -0.8135   28.8779 C   0  0  0  0  0  0  0  0  0  0  0  0
  -28.4690   -0.7850   29.8287 C   0  0  0  0  0  0  0  0  0  0  0  0
  -28.1960    0.3478   28.0550 C   0  0  0  0  0  0  0  0  0  0  0  0
  -27.4421    0.5100   26.7946 C   0  0  0  0  0  0  0  0  0  0  0  0
  -26.4394    0.8329   26.6142 C   0  0  0  0  0  0  0  0  0  0  0  0
  -25.2142    0.6625   26.7020 C   0  0  0  0  0  0  0  0  0  0  0  0
  -23.9079    0.8049   27.1306 C   0  0  0  0  0  0  0  0  0  0  0  0
  -23.4445    0.1294   28.2558 C   0  0  0  0  0  0  0  0  0  0  0  0
  -29.5169    0.0495   30.3610 C   0  0  0  0  0  0  0  0  0  0  0  0
  -29.8068    1.1167   29.5737 C   0  0  0  0  0  0  0  0  0  0  0  0
  -29.1540    1.2932   28.3982 C   0  0  0  0  0  0  0  0  0  0  0  0
  -22.1303    0.3922   28.7744 C   0  0  0  0  0  0  0  0  0  0  0  0
  -21.3424    1.2804   28.0570 C   0  0  0  0  0  0  0  0  0  0  0  0
  -23.0491    1.8475   26.6440 C   0  0  0  0  0  0  0  0  0  0  0  0
  -21.7801    2.0502   27.0995 C   0  0  0  0  0  0  0  0  0  0  0  0
  -28.2862   -0.0006   25.6639 C   0  0  0  0  0  0  0  0  0  0  0  0
  -29.2469    0.9609   25.1055 C   0  0  0  0  0  0  0  0  0  0  0  0
  -26.4978    2.4184   26.2849 C   0  0  0  0  0  0  0  0  0  0  0  0
  -29.2577    2.1992   25.4055 C   0  0  0  0  0  0  0  0  0  0  0  0
  -28.3721    2.8821   26.0951 C   0  0  0  0  0  0  0  0  0  0  0  0
  -30.8284    2.1357   30.0209 C   0  0  0  0  0  0  0  0  0  0  0  0
  -31.5628    2.7261   29.1723 N   0  0  0  0  0  0  0  0  0  0  0  0
  -31.6699    2.4542   28.0776 C   0  0  0  0  0  0  0  0  0  0  0  0
  -32.2092    3.4852   27.2237 C   0  0  0  0  0  0  0  0  0  0  0  0
  -31.8579    4.2229   29.3306 C   0  0  0  0  0  0  0  0  0  0  0  0
  -32.4453    4.5295   28.1573 C   0  0  0  0  0  0  0  0  0  0  0  0
  -30.2509    0.3636   24.2366 C   0  0  0  0  0  0  0  0  0  0  0  0
  -30.1202   -0.7283   23.8935 F   0  0  0  0  0  0  0  0  0  0  0  0
  -30.4576    1.2092   23.1946 F   0  0  0  0  0  0  0  0  0  0  0  0
  -31.5002    0.4095   24.9245 F   0  0  0  0  0  0  0  0  0  0  0  0
  3  4  1  0
  4  5  1  0
  5  6  2  3
  6  7  1  0
  4 16  1  0
 16 17  2  0
  5 18  1  0
 17 19  1  0
 18 20  1  0
 19 20  2  0
 10 21  1  0
 21 22  1  0
 22 23  1  0
 23 24  2  0
 22 25  1  0
 24 26  1  0
 25 26  2  0
 17 27  1  0
 27 28  1  0
 27 29  1  0
 27 30  1  0
  7  8  2  0
  8 12  1  0
 12 13  2  0
 13 15  1  0
 15 14  2  0
 14  7  1  0
  1  2  2  0
  2  9  1  0
  9 10  2  0
 10 11  1  0
 11  3  2  0
  3  1  1  0
M  END

$$$$
