No_525-gen_results/8p0m/2024-11-27-11-27-31/
     RDKit          3D

 16 16  0  0  0  0  0  0  0  0999 V2000
  -28.0162   -0.8135   28.8779 C   0  0  0  0  0  0  0  0  0  0  0  0
  -27.0636   -0.1189   28.6079 C   0  0  0  0  0  0  0  0  0  0  0  0
  -26.9716    0.7139   27.5060 C   0  0  0  0  0  0  0  0  0  0  0  0
  -25.8205    1.4909   27.1160 C   0  0  0  0  0  0  0  0  0  0  0  0
  -24.6562    1.4242   27.9180 C   0  0  0  0  0  0  0  0  0  0  0  0
  -24.6847    0.5901   29.0659 C   0  0  0  0  0  0  0  0  0  0  0  0
  -25.8099   -0.1265   29.3338 C   0  0  0  0  0  0  0  0  0  0  0  0
  -27.9680   -1.6901   30.0059 N   0  0  0  0  0  0  0  0  0  0  0  0
  -23.4715    2.1888   27.6131 C   0  0  0  0  0  0  0  0  0  0  0  0
  -23.2745    2.6995   26.5021 O   0  0  0  0  0  0  0  0  0  0  0  0
  -22.2808    1.9446   28.3604 N   0  0  0  0  0  0  0  0  0  0  0  0
  -29.0628   -2.3695   30.4619 C   0  0  0  0  0  0  0  0  0  0  0  0
  -28.8330   -3.5897   31.3266 C   0  0  0  0  0  0  0  0  0  0  0  0
  -27.8195   -4.1926   30.8134 F   0  0  0  0  0  0  0  0  0  0  0  0
  -28.5429   -3.3274   32.5698 F   0  0  0  0  0  0  0  0  0  0  0  0
  -29.9104   -4.2934   31.5141 F   0  0  0  0  0  0  0  0  0  0  0  0
  1  8  1  0
  5  9  1  0
  9 10  2  0
  9 11  1  0
  8 12  2  3
 12 13  1  0
 13 14  1  0
 13 15  1  0
 13 16  1  0
  1  2  1  0
  2  3  2  0
  3  4  1  0
  4  5  2  0
  5  6  1  0
  6  7  2  0
  7  2  1  0
M  END

$$$$
