No_542-gen_results/8p0m/2024-11-27-11-27-31/
     RDKit          3D

 10 10  0  0  0  0  0  0  0  0999 V2000
  -28.0162   -0.8135   28.8779 C   0  0  0  0  0  0  0  0  0  0  0  0
  -28.4690   -0.7850   29.8287 C   0  0  0  0  0  0  0  0  0  0  0  0
  -27.1356    0.2359   28.5352 C   0  0  0  0  0  0  0  0  0  0  0  0
  -26.8745    1.2825   29.3982 C   0  0  0  0  0  0  0  0  0  0  0  0
  -25.9742    2.3797   29.0831 C   0  0  0  0  0  0  0  0  0  0  0  0
  -28.3915    0.1302   30.9603 C   0  0  0  0  0  0  0  0  0  0  0  0
  -27.5035    1.2424   30.6700 C   0  0  0  0  0  0  0  0  0  0  0  0
  -25.4260    3.0444   29.8322 N   0  0  0  0  0  0  0  0  0  0  0  0
  -25.7874    2.7064   27.6718 C   0  0  0  0  0  0  0  0  0  0  0  0
  -26.0128    2.2965   26.6961 C   0  0  0  0  0  0  0  0  0  0  0  0
  4  5  1  0
  5  8  1  0
  5  9  1  0
  9 10  2  0
  1  2  2  0
  2  6  1  0
  6  7  2  0
  7  4  1  0
  4  3  2  0
  3  1  1  0
M  END

$$$$
