No_56-gen_results/8p0m/2024-11-27-11-27-31/
     RDKit          3D

 35 38  0  0  0  0  0  0  0  0999 V2000
  -28.0162   -0.8135   28.8779 C   0  0  0  0  0  0  0  0  0  0  0  0
  -27.0636   -0.1190   28.6079 C   0  0  0  0  0  0  0  0  0  0  0  0
  -26.9716    0.7139   27.5060 C   0  0  0  0  0  0  0  0  0  0  0  0
  -28.1053    0.7744   26.6421 C   0  0  0  0  0  0  0  0  0  0  0  0
  -29.2041    0.1179   27.0477 C   0  0  0  0  0  0  0  0  0  0  0  0
  -29.2127   -0.6088   28.1281 C   0  0  0  0  0  0  0  0  0  0  0  0
  -25.7106    1.4518   27.1380 C   0  0  0  0  0  0  0  0  0  0  0  0
  -25.2074    2.4128   27.9320 C   0  0  0  0  0  0  0  0  0  0  0  0
  -23.9232    3.0327   27.5992 C   0  0  0  0  0  0  0  0  0  0  0  0
  -23.2537    2.5225   26.4549 C   0  0  0  0  0  0  0  0  0  0  0  0
  -24.8528    0.9891   26.0822 C   0  0  0  0  0  0  0  0  0  0  0  0
  -23.7240    1.5578   25.7176 C   0  0  0  0  0  0  0  0  0  0  0  0
  -25.9096    2.9945   29.0754 C   0  0  0  0  0  0  0  0  0  0  0  0
  -26.9089    2.5420   29.3407 O   0  0  0  0  0  0  0  0  0  0  0  0
  -25.5077    4.2943   29.4696 N   0  0  0  0  0  0  0  0  0  0  0  0
  -26.0831    4.9782   30.5908 C   0  0  0  0  0  0  0  0  0  0  0  0
  -28.0755    1.6875   25.4788 C   0  0  0  0  0  0  0  0  0  0  0  0
  -25.6720    6.2575   30.6722 C   0  0  0  0  0  0  0  0  0  0  0  0
  -25.3376    6.9340   29.6609 O   0  0  0  0  0  0  0  0  0  0  0  0
  -25.4619    6.8713   31.9578 N   0  0  0  0  0  0  0  0  0  0  0  0
  -25.7865    6.2145   33.1576 C   0  0  0  0  0  0  0  0  0  0  0  0
  -26.2117    4.9184   32.9676 C   0  0  0  0  0  0  0  0  0  0  0  0
  -26.1652    4.2331   31.7183 C   0  0  0  0  0  0  0  0  0  0  0  0
  -28.0542   -1.6925   30.1005 C   0  0  0  0  0  0  0  0  0  0  0  0
  -28.7043   -2.7515   30.1635 O   0  0  0  0  0  0  0  0  0  0  0  0
  -27.2186   -1.3910   31.0934 O   0  0  0  0  0  0  0  0  0  0  0  0
  -25.0716    8.3079   32.0260 C   0  0  0  0  0  0  0  0  0  0  0  0
  -23.8752    8.4012   32.2383 C   0  0  0  0  0  0  0  0  0  0  0  0
  -23.0793    7.7219   33.1422 C   0  0  0  0  0  0  0  0  0  0  0  0
  -21.6538    7.8763   33.4199 C   0  0  0  0  0  0  0  0  0  0  0  0
  -20.9889    8.8104   32.6870 C   0  0  0  0  0  0  0  0  0  0  0  0
  -21.6296    9.5541   31.6932 C   0  0  0  0  0  0  0  0  0  0  0  0
  -22.9954    9.3919   31.4863 C   0  0  0  0  0  0  0  0  0  0  0  0
  -25.6837    9.0110   30.8100 C   0  0  0  0  0  0  0  0  0  0  0  0
  -26.9106    9.3950   30.8060 C   0  0  0  0  0  0  0  0  0  0  0  0
  3  7  1  0
  8 13  1  0
 13 14  2  0
 13 15  1  0
 15 16  1  0
  4 17  1  0
 16 18  1  0
 18 19  2  0
 18 20  1  0
 20 21  1  0
 16 23  1  0
 22 23  1  0
  1 24  1  0
 24 25  2  0
 24 26  1  0
 20 27  1  0
 27 28  1  0
 27 34  1  0
 34 35  1  0
 22 21  1  0
  7  8  1  0
  8  9  2  0
  9 10  1  0
 10 12  2  0
 12 11  1  0
 11  7  2  0
  1  2  2  0
  2  3  1  0
  3  4  2  0
  4  5  1  0
  5  6  2  0
  6  1  1  0
 28 29  2  0
 29 30  1  0
 30 31  2  0
 31 32  1  0
 32 33  2  0
 33 28  1  0
M  END

$$$$
