No_560-gen_results/8p0m/2024-11-27-11-27-31/
     RDKit          3D

 22 23  0  0  0  0  0  0  0  0999 V2000
  -28.0162   -0.8135   28.8779 C   0  0  0  0  0  0  0  0  0  0  0  0
  -27.0636   -0.1189   28.6079 C   0  0  0  0  0  0  0  0  0  0  0  0
  -26.9287    1.1713   29.0083 C   0  0  0  0  0  0  0  0  0  0  0  0
  -27.9560    1.7411   29.7840 C   0  0  0  0  0  0  0  0  0  0  0  0
  -29.0569   -0.3271   29.7466 C   0  0  0  0  0  0  0  0  0  0  0  0
  -28.9828    0.9722   30.1516 C   0  0  0  0  0  0  0  0  0  0  0  0
  -25.8907   -0.6263   27.7857 C   0  0  0  0  0  0  0  0  0  0  0  0
  -25.4633    0.1123   26.6815 C   0  0  0  0  0  0  0  0  0  0  0  0
  -25.0310   -1.6701   28.2406 C   0  0  0  0  0  0  0  0  0  0  0  0
  -23.8639   -1.4110   29.0099 C   0  0  0  0  0  0  0  0  0  0  0  0
  -23.2858   -0.1213   29.0920 C   0  0  0  0  0  0  0  0  0  0  0  0
  -22.3541    0.0303   30.1803 C   0  0  0  0  0  0  0  0  0  0  0  0
  -23.2081    0.7498   28.0021 C   0  0  0  0  0  0  0  0  0  0  0  0
  -24.3331    1.0450   27.1341 C   0  0  0  0  0  0  0  0  0  0  0  0
  -24.3763    2.3110   26.3812 C   0  0  0  0  0  0  0  0  0  0  0  0
  -23.3333    2.6231   25.8517 F   0  0  0  0  0  0  0  0  0  0  0  0
  -25.3704    2.9674   26.3398 F   0  0  0  0  0  0  0  0  0  0  0  0
  -22.7337    0.2124   31.3034 O   0  0  0  0  0  0  0  0  0  0  0  0
  -30.1266    1.5286   31.0097 C   0  0  0  0  0  0  0  0  0  0  0  0
  -31.1178    1.2571   31.0762 O   0  0  0  0  0  0  0  0  0  0  0  0
  -29.6901    2.5850   31.8246 O   0  0  0  0  0  0  0  0  0  0  0  0
  -21.0525    0.1405   29.9102 O   0  0  0  0  0  0  0  0  0  0  0  0
  2  7  1  0
  7  8  1  0
  7  9  1  0
  9 10  2  0
 10 11  1  0
 11 12  1  0
 11 13  1  0
  8 14  1  0
 13 14  2  0
 14 15  1  0
 15 16  1  0
 15 17  1  0
 12 18  1  0
  6 19  1  0
 19 20  1  0
 19 21  2  0
 12 22  2  0
  1  2  2  0
  2  3  1  0
  3  4  2  0
  4  6  1  0
  6  5  2  0
  5  1  1  0
M  END

$$$$
