No_599-gen_results/8p0m/2024-11-27-11-27-31/
     RDKit          3D

 33 36  0  0  0  0  0  0  0  0999 V2000
  -28.0162   -0.8135   28.8779 C   0  0  0  0  0  0  0  0  0  0  0  0
  -28.4690   -0.7850   29.8287 C   0  0  0  0  0  0  0  0  0  0  0  0
  -28.1960    0.3478   28.0550 C   0  0  0  0  0  0  0  0  0  0  0  0
  -27.4421    0.5100   26.7946 C   0  0  0  0  0  0  0  0  0  0  0  0
  -26.4394    0.8329   26.6142 C   0  0  0  0  0  0  0  0  0  0  0  0
  -25.2139    0.6624   26.7019 C   0  0  0  0  0  0  0  0  0  0  0  0
  -23.9079    0.8048   27.1307 C   0  0  0  0  0  0  0  0  0  0  0  0
  -23.0564    1.8886   26.7082 C   0  0  0  0  0  0  0  0  0  0  0  0
  -29.5235    0.0469   30.3543 C   0  0  0  0  0  0  0  0  0  0  0  0
  -29.8144    1.1140   29.5694 C   0  0  0  0  0  0  0  0  0  0  0  0
  -29.1518    1.3052   28.3943 C   0  0  0  0  0  0  0  0  0  0  0  0
  -21.7824    2.0268   27.3103 C   0  0  0  0  0  0  0  0  0  0  0  0
  -21.3592    1.1033   28.2923 C   0  0  0  0  0  0  0  0  0  0  0  0
  -23.3173    0.0485   28.1884 C   0  0  0  0  0  0  0  0  0  0  0  0
  -22.1454    0.1828   28.7662 C   0  0  0  0  0  0  0  0  0  0  0  0
  -28.2885   -0.0014   25.6640 C   0  0  0  0  0  0  0  0  0  0  0  0
  -28.2549    0.8086   24.5640 C   0  0  0  0  0  0  0  0  0  0  0  0
  -26.4875    1.7895   25.3879 C   0  0  0  0  0  0  0  0  0  0  0  0
  -27.1834    1.5259   24.3134 C   0  0  0  0  0  0  0  0  0  0  0  0
  -29.3853    2.3019   27.6375 O   0  0  0  0  0  0  0  0  0  0  0  0
  -30.5717    2.5216   27.0911 C   0  0  0  0  0  0  0  0  0  0  0  0
  -30.9579    3.9312   27.3418 C   0  0  0  0  0  0  0  0  0  0  0  0
  -30.6541    2.1925   25.7756 O   0  0  0  0  0  0  0  0  0  0  0  0
  -30.1345    4.8694   27.5549 C   0  0  0  0  0  0  0  0  0  0  0  0
  -30.1896    6.1861   27.7732 Br  0  0  0  0  0  0  0  0  0  0  0  0
  -27.8277   -0.1462   27.4546 Br  0  0  0  0  0  0  0  0  0  0  0  0
  -24.7901   -0.6065   25.8657 F   0  0  0  0  0  0  0  0  0  0  0  0
  -31.6623    1.4668   25.3034 C   0  0  0  0  0  0  0  0  0  0  0  0
  -31.7349    1.6013   23.9753 C   0  0  0  0  0  0  0  0  0  0  0  0
  -32.8915    1.6857   25.9568 C   0  0  0  0  0  0  0  0  0  0  0  0
  -33.9016    1.1474   25.5934 C   0  0  0  0  0  0  0  0  0  0  0  0
  -34.1593    1.2260   24.1163 C   0  0  0  0  0  0  0  0  0  0  0  0
  -32.9150    0.8783   23.3462 C   0  0  0  0  0  0  0  0  0  0  0  0
  1  2  2  0
  1  3  1  0
  3  4  1  0
  6  7  1  0
  2  9  1  0
  9 10  2  0
  3 11  1  0
 10 11  1  0
 11 20  1  0
 20 21  1  0
 21 22  1  0
 21 23  1  0
 22 24  1  0
 24 25  1  0
  3 26  1  0
  6 27  1  0
 23 28  1  0
  6  5  1  0
  4  5  2  0
  5 18  1  0
 18 19  2  0
 19 17  1  0
 17 16  2  0
 16  4  1  0
  7  8  2  0
  8 12  1  0
 12 13  2  0
 13 15  1  0
 15 14  2  0
 14  7  1  0
 28 29  2  0
 29 33  1  0
 33 32  2  0
 32 31  1  0
 31 30  2  0
 30 28  1  0
M  END

$$$$
