No_53-gen_results/8p0m/2024-11-27-11-27-31/
     RDKit          3D

  9  8  0  0  0  0  0  0  0  0999 V2000
  -28.1229   -1.3353   28.4874 O   0  0  0  0  0  0  0  0  0  0  0  0
  -27.4806   -0.4044   28.7094 C   0  0  0  0  0  0  0  0  0  0  0  0
  -27.1904    0.2460   29.5268 C   0  0  0  0  0  0  0  0  0  0  0  0
  -26.7282   -0.1238   27.4073 F   0  0  0  0  0  0  0  0  0  0  0  0
  -26.5731    0.6182   30.3700 C   0  0  0  0  0  0  0  0  0  0  0  0
  -25.5814    0.1352   31.3578 C   0  0  0  0  0  0  0  0  0  0  0  0
  -24.7941    0.8710   32.2198 C   0  0  0  0  0  0  0  0  0  0  0  0
  -24.9153    2.3107   32.2031 C   0  0  0  0  0  0  0  0  0  0  0  0
  -25.7778    2.9206   31.2666 C   0  0  0  0  0  0  0  0  0  0  0  0
  1  2  2  0
  2  3  1  0
  2  4  1  0
  3  5  3  0
  5  6  1  0
  6  7  2  3
  7  8  1  0
  8  9  2  0
M  END

$$$$
