No_511-gen_results/8p0m/2024-11-27-11-27-31/
     RDKit          3D

 25 26  0  0  0  0  0  0  0  0999 V2000
  -28.0162   -0.8135   28.8779 C   0  0  0  0  0  0  0  0  0  0  0  0
  -28.4690   -0.7850   29.8287 C   0  0  0  0  0  0  0  0  0  0  0  0
  -26.5455   -0.8762   28.8500 C   0  0  0  0  0  0  0  0  0  0  0  0
  -25.8041   -1.0324   30.0571 C   0  0  0  0  0  0  0  0  0  0  0  0
  -27.9437   -0.9869   31.2075 C   0  0  0  0  0  0  0  0  0  0  0  0
  -26.5825   -1.0386   31.2231 C   0  0  0  0  0  0  0  0  0  0  0  0
  -24.4246   -0.9571   29.9095 C   0  0  0  0  0  0  0  0  0  0  0  0
  -23.7991    0.3428   30.0514 C   0  0  0  0  0  0  0  0  0  0  0  0
  -23.3425    1.0238   28.9211 C   0  0  0  0  0  0  0  0  0  0  0  0
  -23.9066    2.1314   28.3003 C   0  0  0  0  0  0  0  0  0  0  0  0
  -23.3970    2.5621   27.0444 C   0  0  0  0  0  0  0  0  0  0  0  0
  -22.2860    1.8903   26.5045 C   0  0  0  0  0  0  0  0  0  0  0  0
  -21.6217    1.0069   27.2780 C   0  0  0  0  0  0  0  0  0  0  0  0
  -22.1204    0.4962   28.4536 C   0  0  0  0  0  0  0  0  0  0  0  0
  -23.9718    1.1095   31.2789 C   0  0  0  0  0  0  0  0  0  0  0  0
  -25.6619   -0.7739   27.3927 Cl  0  0  0  0  0  0  0  0  0  0  0  0
  -30.0959   -0.7459   29.8714 C   0  0  0  0  0  0  0  0  0  0  0  0
  -30.6903    0.1126   30.6227 O   0  0  0  0  0  0  0  0  0  0  0  0
  -30.7024   -1.4673   29.1089 O   0  0  0  0  0  0  0  0  0  0  0  0
  -24.1824    3.8466   26.2485 Cl  0  0  0  0  0  0  0  0  0  0  0  0
  -21.4897   -0.4624   29.0504 O   0  0  0  0  0  0  0  0  0  0  0  0
  -25.0686    2.6874   28.7471 O   0  0  0  0  0  0  0  0  0  0  0  0
  -25.1897    3.6953   29.6049 C   0  0  0  0  0  0  0  0  0  0  0  0
  -26.1777    3.5320   30.6464 C   0  0  0  0  0  0  0  0  0  0  0  0
  -25.7708    3.2741   31.7575 O   0  0  0  0  0  0  0  0  0  0  0  0
  4  7  1  0
  7  8  1  0
  8  9  1  0
  8 15  1  0
  3 16  1  0
  2 17  1  0
 17 18  1  0
 17 19  2  0
 11 20  1  0
 14 21  1  0
 10 22  1  0
 22 23  1  0
 23 24  1  0
 24 25  2  0
  9 10  2  0
 10 11  1  0
 11 12  2  0
 12 13  1  0
 13 14  2  0
 14  9  1  0
  1  2  2  0
  2  5  1  0
  5  6  2  0
  6  4  1  0
  4  3  2  0
  3  1  1  0
M  END

$$$$
