No_533-gen_results/8p0m/2024-11-27-11-27-31/
     RDKit          3D

 13 14  0  0  0  0  0  0  0  0999 V2000
  -28.0162   -0.8135   28.8779 C   0  0  0  0  0  0  0  0  0  0  0  0
  -27.0636   -0.1190   28.6079 C   0  0  0  0  0  0  0  0  0  0  0  0
  -26.8756    1.1325   28.9134 C   0  0  0  0  0  0  0  0  0  0  0  0
  -27.9014    1.8066   29.6436 C   0  0  0  0  0  0  0  0  0  0  0  0
  -29.0458   -0.2316   29.7181 C   0  0  0  0  0  0  0  0  0  0  0  0
  -28.9402    1.0517   30.0597 C   0  0  0  0  0  0  0  0  0  0  0  0
  -30.0593   -1.0632   30.0946 O   0  0  0  0  0  0  0  0  0  0  0  0
  -25.6684    1.9362   28.4484 C   0  0  0  0  0  0  0  0  0  0  0  0
  -24.8947    2.4569   29.0063 C   0  0  0  0  0  0  0  0  0  0  0  0
  -25.5438    1.9966   26.9661 C   0  0  0  0  0  0  0  0  0  0  0  0
  -24.3981    2.6000   26.4303 C   0  0  0  0  0  0  0  0  0  0  0  0
  -23.6409    3.1145   28.6139 C   0  0  0  0  0  0  0  0  0  0  0  0
  -23.4156    3.1761   27.2196 C   0  0  0  0  0  0  0  0  0  0  0  0
  5  7  1  0
  3  8  1  0
  1  2  2  0
  2  3  1  0
  3  4  2  0
  4  6  1  0
  6  5  2  0
  5  1  1  0
  8  9  2  0
  9 12  1  0
 12 13  2  0
 13 11  1  0
 11 10  2  0
 10  8  1  0
M  END

$$$$
