No_59-gen_results/8p0m/2024-11-27-11-27-31/
     RDKit          3D

 35 39  0  0  0  0  0  0  0  0999 V2000
  -28.0162   -0.8135   28.8779 C   0  0  0  0  0  0  0  0  0  0  0  0
  -27.0636   -0.1190   28.6079 C   0  0  0  0  0  0  0  0  0  0  0  0
  -26.9287    1.1713   29.0083 C   0  0  0  0  0  0  0  0  0  0  0  0
  -27.9560    1.7411   29.7840 C   0  0  0  0  0  0  0  0  0  0  0  0
  -29.0569   -0.3271   29.7466 C   0  0  0  0  0  0  0  0  0  0  0  0
  -28.9828    0.9722   30.1516 C   0  0  0  0  0  0  0  0  0  0  0  0
  -25.7352   -0.7297   27.6631 Cl  0  0  0  0  0  0  0  0  0  0  0  0
  -30.1045    1.3112   31.0779 C   0  0  0  0  0  0  0  0  0  0  0  0
  -29.9028    2.4377   31.8263 C   0  0  0  0  0  0  0  0  0  0  0  0
  -28.7969    3.3175   31.3876 C   0  0  0  0  0  0  0  0  0  0  0  0
  -27.7749    2.9847   30.5559 C   0  0  0  0  0  0  0  0  0  0  0  0
  -26.6398    3.8469   30.2668 C   0  0  0  0  0  0  0  0  0  0  0  0
  -26.4090    4.4414   29.3292 N   0  0  0  0  0  0  0  0  0  0  0  0
  -25.8806    4.1616   31.3740 O   0  0  0  0  0  0  0  0  0  0  0  0
  -25.1694    5.3191   29.0592 C   0  0  0  0  0  0  0  0  0  0  0  0
  -27.2274    4.2824   28.0367 C   0  0  0  0  0  0  0  0  0  0  0  0
  -25.5540    6.7337   29.0559 C   0  0  0  0  0  0  0  0  0  0  0  0
  -26.6705    7.1184   28.7747 C   0  0  0  0  0  0  0  0  0  0  0  0
  -27.4462    6.7161   27.7598 C   0  0  0  0  0  0  0  0  0  0  0  0
  -28.0801    5.4762   27.9327 C   0  0  0  0  0  0  0  0  0  0  0  0
  -30.9224    2.9918   32.6925 C   0  0  0  0  0  0  0  0  0  0  0  0
  -31.8796    2.5048   32.9669 O   0  0  0  0  0  0  0  0  0  0  0  0
  -30.6853    4.3717   33.0371 N   0  0  0  0  0  0  0  0  0  0  0  0
  -31.6167    5.0610   33.9416 C   0  0  0  0  0  0  0  0  0  0  0  0
  -31.5152    6.2839   33.8205 C   0  0  0  0  0  0  0  0  0  0  0  0
  -32.2341    7.2070   34.5708 C   0  0  0  0  0  0  0  0  0  0  0  0
  -33.2114    6.5927   35.4644 C   0  0  0  0  0  0  0  0  0  0  0  0
  -33.2802    5.2200   35.5105 C   0  0  0  0  0  0  0  0  0  0  0  0
  -32.4327    4.4065   34.7425 C   0  0  0  0  0  0  0  0  0  0  0  0
  -34.2143    4.5259   36.4271 C   0  0  0  0  0  0  0  0  0  0  0  0
  -34.6468    3.4366   36.2851 C   0  0  0  0  0  0  0  0  0  0  0  0
  -34.3698    2.6924   35.3392 C   0  0  0  0  0  0  0  0  0  0  0  0
  -33.1121    3.0602   34.5261 C   0  0  0  0  0  0  0  0  0  0  0  0
  -32.3813    1.8826   34.3872 C   0  0  0  0  0  0  0  0  0  0  0  0
  -32.1072    0.9341   34.7579 O   0  0  0  0  0  0  0  0  0  0  0  0
  2  7  1  0
 11 12  1  0
 12 13  1  0
 12 14  2  0
 13 15  1  0
 13 16  1  0
 15 17  1  0
 17 18  1  0
 18 19  2  0
 16 20  1  0
 19 20  1  0
  9 21  1  0
 21 22  2  0
 21 23  1  0
 23 24  1  0
 28 30  1  0
 30 31  1  0
 31 32  1  0
 29 33  1  0
 32 33  1  0
 33 34  1  0
 34 35  2  0
  6  8  1  0
  8  9  2  0
  9 10  1  0
 10 11  2  0
 11  4  1  0
 24 25  2  0
 25 26  1  0
 26 27  2  0
 27 28  1  0
 28 29  2  0
 29 24  1  0
  1  2  2  0
  2  3  1  0
  3  4  2  0
  4  6  1  0
  6  5  2  0
  5  1  1  0
M  END

$$$$
