No_559-gen_results/8p0m/2024-11-27-11-27-31/
     RDKit          3D

 21 24  0  0  0  0  0  0  0  0999 V2000
  -28.0162   -0.8135   28.8779 C   0  0  0  0  0  0  0  0  0  0  0  0
  -28.4690   -0.7850   29.8287 C   0  0  0  0  0  0  0  0  0  0  0  0
  -26.5042   -0.7777   28.8766 C   0  0  0  0  0  0  0  0  0  0  0  0
  -25.7623   -0.0022   27.9705 C   0  0  0  0  0  0  0  0  0  0  0  0
  -24.3914    0.1198   28.1381 C   0  0  0  0  0  0  0  0  0  0  0  0
  -23.7115   -0.7200   29.0863 C   0  0  0  0  0  0  0  0  0  0  0  0
  -24.4207   -1.5358   29.9161 C   0  0  0  0  0  0  0  0  0  0  0  0
  -25.8017   -1.5837   29.8123 C   0  0  0  0  0  0  0  0  0  0  0  0
  -29.9399   -0.6147   29.9523 C   0  0  0  0  0  0  0  0  0  0  0  0
  -30.5535   -0.3493   28.7375 C   0  0  0  0  0  0  0  0  0  0  0  0
  -29.8307   -0.1348   27.6333 C   0  0  0  0  0  0  0  0  0  0  0  0
  -28.5010   -0.1617   27.6990 C   0  0  0  0  0  0  0  0  0  0  0  0
  -27.4599    0.0381   26.7918 N   0  0  0  0  0  0  0  0  0  0  0  0
  -26.3645    0.4856   26.8750 C   0  0  0  0  0  0  0  0  0  0  0  0
  -28.0600    0.0051   25.3261 C   0  0  0  0  0  0  0  0  0  0  0  0
  -25.7630    1.2714   26.1417 O   0  0  0  0  0  0  0  0  0  0  0  0
  -22.2329   -0.5733   29.1722 C   0  0  0  0  0  0  0  0  0  0  0  0
  -21.4537   -1.2699   29.6936 N   0  0  0  0  0  0  0  0  0  0  0  0
  -21.6739    0.3957   28.2437 N   0  0  0  0  0  0  0  0  0  0  0  0
  -22.3159    1.4380   27.7249 C   0  0  0  0  0  0  0  0  0  0  0  0
  -23.7415    1.2992   27.5541 C   0  0  0  0  0  0  0  0  0  0  0  0
  1  3  1  0
 12 13  1  0
  4 14  1  0
 13 14  1  0
 13 15  1  0
 14 16  2  0
  6 17  1  0
 17 18  2  0
 17 19  1  0
 19 20  1  0
  5 21  1  0
 20 21  1  0
  1  2  2  0
  2  9  1  0
  9 10  2  0
 10 11  1  0
 11 12  2  0
 12  1  1  0
  3  4  2  0
  4  5  1  0
  5  6  2  0
  6  7  1  0
  7  8  2  0
  8  3  1  0
M  END

$$$$
