No_554-gen_results/8p0m/2024-11-27-11-27-31/
     RDKit          3D

 23 25  0  0  0  0  0  0  0  0999 V2000
  -28.0162   -0.8135   28.8779 C   0  0  0  0  0  0  0  0  0  0  0  0
  -27.0636   -0.1190   28.6079 C   0  0  0  0  0  0  0  0  0  0  0  0
  -25.7923   -0.4302   29.0761 C   0  0  0  0  0  0  0  0  0  0  0  0
  -25.5756   -1.5654   29.9363 C   0  0  0  0  0  0  0  0  0  0  0  0
  -26.7354   -2.3004   30.2173 C   0  0  0  0  0  0  0  0  0  0  0  0
  -27.9184   -1.9537   29.7629 C   0  0  0  0  0  0  0  0  0  0  0  0
  -29.2678   -2.8890   30.2152 Cl  0  0  0  0  0  0  0  0  0  0  0  0
  -27.1068    1.1096   27.7591 C   0  0  0  0  0  0  0  0  0  0  0  0
  -26.6107    2.1768   27.8697 C   0  0  0  0  0  0  0  0  0  0  0  0
  -26.6373    3.2700   26.9096 C   0  0  0  0  0  0  0  0  0  0  0  0
  -27.3028    3.0426   25.7003 C   0  0  0  0  0  0  0  0  0  0  0  0
  -27.7920    0.8766   26.4300 C   0  0  0  0  0  0  0  0  0  0  0  0
  -27.8536    1.8252   25.5025 C   0  0  0  0  0  0  0  0  0  0  0  0
  -28.5656    1.6032   24.2366 C   0  0  0  0  0  0  0  0  0  0  0  0
  -29.9608    1.6050   24.3703 C   0  0  0  0  0  0  0  0  0  0  0  0
  -30.5866    2.5470   24.7536 C   0  0  0  0  0  0  0  0  0  0  0  0
  -32.0357    2.6673   24.8526 C   0  0  0  0  0  0  0  0  0  0  0  0
  -32.6823    1.5034   24.4701 C   0  0  0  0  0  0  0  0  0  0  0  0
  -30.7249    0.4736   23.9619 C   0  0  0  0  0  0  0  0  0  0  0  0
  -32.0590    0.3978   24.0750 C   0  0  0  0  0  0  0  0  0  0  0  0
  -25.9593    4.5929   27.2034 C   0  0  0  0  0  0  0  0  0  0  0  0
  -24.7620    4.5549   27.6886 N   0  0  0  0  0  0  0  0  0  0  0  0
  -26.5618    5.6330   26.9983 O   0  0  0  0  0  0  0  0  0  0  0  0
  6  7  1  0
  2  8  1  0
 13 14  1  0
 14 15  1  0
 10 21  1  0
 21 22  1  0
 21 23  2  0
 15 16  2  0
 16 17  1  0
 17 18  2  0
 18 20  1  0
 20 19  2  0
 19 15  1  0
  1  2  2  0
  2  3  1  0
  3  4  2  0
  4  5  1  0
  5  6  2  0
  6  1  1  0
  8  9  2  0
  9 10  1  0
 10 11  2  0
 11 13  1  0
 13 12  2  0
 12  8  1  0
M  END

$$$$
