No_546-gen_results/8p0m/2024-11-27-11-27-31/
     RDKit          3D

 13 13  0  0  0  0  0  0  0  0999 V2000
  -28.0727   -1.2542   28.5316 F   0  0  0  0  0  0  0  0  0  0  0  0
  -27.3591   -0.3792   28.7224 C   0  0  0  0  0  0  0  0  0  0  0  0
  -26.9761   -0.0935   27.6617 F   0  0  0  0  0  0  0  0  0  0  0  0
  -28.0039    1.0427   29.6533 Br  0  0  0  0  0  0  0  0  0  0  0  0
  -26.0991   -0.9234   29.5065 C   0  0  0  0  0  0  0  0  0  0  0  0
  -25.5911   -1.9590   29.3429 N   0  0  0  0  0  0  0  0  0  0  0  0
  -24.6840   -2.2143   28.3225 C   0  0  0  0  0  0  0  0  0  0  0  0
  -26.5107   -3.1327   29.4337 C   0  0  0  0  0  0  0  0  0  0  0  0
  -25.3713   -0.1557   30.3699 F   0  0  0  0  0  0  0  0  0  0  0  0
  -25.7853   -4.4336   29.5997 C   0  0  0  0  0  0  0  0  0  0  0  0
  -24.7627   -4.6984   28.7147 C   0  0  0  0  0  0  0  0  0  0  0  0
  -23.9455   -3.5172   28.3890 C   0  0  0  0  0  0  0  0  0  0  0  0
  -24.2109   -5.7814   28.6334 O   0  0  0  0  0  0  0  0  0  0  0  0
  1  2  1  0
  2  3  1  0
  2  4  1  0
  2  5  1  0
  5  6  1  0
  6  7  1  0
  6  8  1  0
  5  9  1  0
 10 11  1  0
  7 12  1  0
 11 12  1  0
 11 13  2  0
 10  8  1  0
M  END

$$$$
