No_563-gen_results/8p0m/2024-11-27-11-27-31/
     RDKit          3D

 35 37  0  0  0  0  0  0  0  0999 V2000
  -28.0162   -0.8135   28.8779 C   0  0  0  0  0  0  0  0  0  0  0  0
  -27.0636   -0.1190   28.6079 C   0  0  0  0  0  0  0  0  0  0  0  0
  -27.0010    0.6913   27.4910 C   0  0  0  0  0  0  0  0  0  0  0  0
  -28.1373    0.7363   26.6350 C   0  0  0  0  0  0  0  0  0  0  0  0
  -29.2360    0.0765   27.0690 C   0  0  0  0  0  0  0  0  0  0  0  0
  -29.2177   -0.6429   28.1747 C   0  0  0  0  0  0  0  0  0  0  0  0
  -28.0326   -1.5744   30.0419 O   0  0  0  0  0  0  0  0  0  0  0  0
  -30.7411    0.1712   25.9779 Br  0  0  0  0  0  0  0  0  0  0  0  0
  -25.6937   -0.1963   29.4339 C   0  0  0  0  0  0  0  0  0  0  0  0
  -25.0696    0.9089   29.8872 C   0  0  0  0  0  0  0  0  0  0  0  0
  -25.3358    1.4663   30.8348 C   0  0  0  0  0  0  0  0  0  0  0  0
  -26.3566    1.0670   31.7860 C   0  0  0  0  0  0  0  0  0  0  0  0
  -26.7141    1.8779   32.9110 C   0  0  0  0  0  0  0  0  0  0  0  0
  -26.0743    3.0766   33.1033 C   0  0  0  0  0  0  0  0  0  0  0  0
  -25.0740    3.5626   32.2843 C   0  0  0  0  0  0  0  0  0  0  0  0
  -24.7316    2.8004   31.1428 C   0  0  0  0  0  0  0  0  0  0  0  0
  -23.9794    1.2597   28.9408 C   0  0  0  0  0  0  0  0  0  0  0  0
  -22.9190    0.9860   29.3043 O   0  0  0  0  0  0  0  0  0  0  0  0
  -24.1400    2.3101   28.1673 O   0  0  0  0  0  0  0  0  0  0  0  0
  -29.0313   -1.7233   30.9718 C   0  0  0  0  0  0  0  0  0  0  0  0
  -30.1844   -2.2291   30.6417 C   0  0  0  0  0  0  0  0  0  0  0  0
  -31.2824   -1.6424   31.0802 C   0  0  0  0  0  0  0  0  0  0  0  0
  -31.1221   -0.8157   32.1185 C   0  0  0  0  0  0  0  0  0  0  0  0
  -29.9527   -0.2540   32.5802 C   0  0  0  0  0  0  0  0  0  0  0  0
  -28.8133   -0.7932   32.0752 C   0  0  0  0  0  0  0  0  0  0  0  0
  -29.9683   -3.5709   31.0626 O   0  0  0  0  0  0  0  0  0  0  0  0
  -29.0826   -3.9445   31.7218 C   0  0  0  0  0  0  0  0  0  0  0  0
  -29.0358   -5.6105   31.5792 C   0  0  0  0  0  0  0  0  0  0  0  0
  -29.2578   -6.1940   32.6229 O   0  0  0  0  0  0  0  0  0  0  0  0
  -29.8854    0.6155   33.8141 C   0  0  0  0  0  0  0  0  0  0  0  0
  -29.0516    0.3858   34.6238 O   0  0  0  0  0  0  0  0  0  0  0  0
  -30.9297    1.4341   34.0622 N   0  0  0  0  0  0  0  0  0  0  0  0
  -30.8653    2.3023   35.2250 C   0  0  0  0  0  0  0  0  0  0  0  0
  -31.7640    2.9647   35.3879 C   0  0  0  0  0  0  0  0  0  0  0  0
  -31.8580    3.9166   36.5535 C   0  0  0  0  0  0  0  0  0  0  0  0
  1  7  1  0
  5  8  1  0
  2  9  1  0
  9 10  1  0
 10 17  1  0
 17 18  2  0
 17 19  1  0
  7 20  1  0
 21 26  1  0
 26 27  1  0
 27 28  2  3
 28 29  1  0
 24 30  1  0
 30 31  2  0
 30 32  1  0
 32 33  1  0
 33 34  2  3
 34 35  1  0
 10 11  1  0
 11 12  2  0
 12 13  1  0
 13 14  2  0
 14 15  1  0
 15 16  2  0
 16 11  1  0
  1  2  1  0
  2  3  2  0
  3  4  1  0
  4  5  2  0
  5  6  1  0
  6  1  2  0
 20 21  2  0
 21 22  1  0
 22 23  2  0
 23 24  1  0
 24 25  2  0
 25 20  1  0
M  END

$$$$
