No_523-gen_results/8p0m/2024-11-27-11-27-31/
     RDKit          3D

 23 24  0  0  0  0  0  0  0  0999 V2000
  -28.0162   -0.8135   28.8779 C   0  0  0  0  0  0  0  0  0  0  0  0
  -27.0636   -0.1190   28.6079 C   0  0  0  0  0  0  0  0  0  0  0  0
  -27.0010    0.6913   27.4910 C   0  0  0  0  0  0  0  0  0  0  0  0
  -25.8548    1.4825   27.0830 C   0  0  0  0  0  0  0  0  0  0  0  0
  -24.6901    1.4526   27.8807 C   0  0  0  0  0  0  0  0  0  0  0  0
  -24.7379    0.6010   29.0416 C   0  0  0  0  0  0  0  0  0  0  0  0
  -25.8234   -0.1688   29.3887 C   0  0  0  0  0  0  0  0  0  0  0  0
  -28.7568   -0.5479   30.0191 N   0  0  0  0  0  0  0  0  0  0  0  0
  -28.9317    0.3890   30.5031 C   0  0  0  0  0  0  0  0  0  0  0  0
  -29.3215    1.0528   31.2089 C   0  0  0  0  0  0  0  0  0  0  0  0
  -29.7799    2.1726   31.9168 C   0  0  0  0  0  0  0  0  0  0  0  0
  -23.5221    2.2242   27.5865 C   0  0  0  0  0  0  0  0  0  0  0  0
  -22.4462    1.7687   27.2324 N   0  0  0  0  0  0  0  0  0  0  0  0
  -23.7153    3.5052   27.4722 O   0  0  0  0  0  0  0  0  0  0  0  0
  -29.7988    3.2711   32.4931 C   0  0  0  0  0  0  0  0  0  0  0  0
  -29.8657    4.3449   33.0287 C   0  0  0  0  0  0  0  0  0  0  0  0
  -29.3047   -1.8872   30.5803 C   0  0  0  0  0  0  0  0  0  0  0  0
  -29.2256   -1.9492   31.9781 C   0  0  0  0  0  0  0  0  0  0  0  0
  -29.6498   -0.1050   32.6313 C   0  0  0  0  0  0  0  0  0  0  0  0
  -29.8606   -2.7743   32.9019 C   0  0  0  0  0  0  0  0  0  0  0  0
  -30.0194   -0.0006   33.8302 C   0  0  0  0  0  0  0  0  0  0  0  0
  -29.6233   -0.7982   33.3859 C   0  0  0  0  0  0  0  0  0  0  0  0
  -30.0782   -2.1709   34.1339 C   0  0  0  0  0  0  0  0  0  0  0  0
  1  2  1  0
  1  8  1  0
  8  9  1  0
  9 10  1  0
 10 11  2  3
  5 12  1  0
 12 13  1  0
 12 14  2  0
 11 15  1  0
 15 16  3  0
  8 17  1  0
 17 18  1  0
 10 19  1  0
 18 20  1  0
 19 21  1  0
 21 22  1  0
 20 23  1  0
 22 23  1  0
  2  3  2  0
  3  4  1  0
  4  5  2  0
  5  6  1  0
  6  7  2  0
  7  2  1  0
M  END

$$$$
