No_561-gen_results/8p0m/2024-11-27-11-27-31/
     RDKit          3D

 16 17  0  0  0  0  0  0  0  0999 V2000
  -28.0162   -0.8135   28.8779 C   0  0  0  0  0  0  0  0  0  0  0  0
  -28.4690   -0.7850   29.8287 C   0  0  0  0  0  0  0  0  0  0  0  0
  -28.1960    0.3478   28.0550 C   0  0  0  0  0  0  0  0  0  0  0  0
  -27.4421    0.5100   26.7947 C   0  0  0  0  0  0  0  0  0  0  0  0
  -26.1689   -0.0794   26.6787 C   0  0  0  0  0  0  0  0  0  0  0  0
  -25.7312   -0.9607   27.6875 C   0  0  0  0  0  0  0  0  0  0  0  0
  -26.5043   -1.2222   28.7582 C   0  0  0  0  0  0  0  0  0  0  0  0
  -28.3432   -2.0040   30.7789 C   0  0  0  0  0  0  0  0  0  0  0  0
  -27.1022   -2.6901   30.6797 C   0  0  0  0  0  0  0  0  0  0  0  0
  -26.1200   -2.3552   29.6514 C   0  0  0  0  0  0  0  0  0  0  0  0
  -24.9752   -3.1271   29.4458 C   0  0  0  0  0  0  0  0  0  0  0  0
  -23.8019   -2.6251   29.0905 C   0  0  0  0  0  0  0  0  0  0  0  0
  -25.2051   -4.5220   29.3429 C   0  0  0  0  0  0  0  0  0  0  0  0
  -26.4247   -5.1944   29.5031 C   0  0  0  0  0  0  0  0  0  0  0  0
  -24.0993   -5.3696   28.9221 C   0  0  0  0  0  0  0  0  0  0  0  0
  -23.0289   -4.8242   28.5430 F   0  0  0  0  0  0  0  0  0  0  0  0
 10 11  1  0
 11 12  2  0
 11 13  1  0
 13 14  1  0
 13 15  1  0
 15 16  1  0
  1  2  2  0
  2  8  1  0
  8  9  2  0
  9 10  1  0
 10  7  2  0
  1  3  1  0
  3  4  2  0
  4  5  1  0
  5  6  2  0
  6  7  1  0
  7  1  1  0
M  END

$$$$
