No_515-gen_results/8p0m/2024-11-27-11-27-31/
     RDKit          3D

 15 17  0  0  0  0  0  0  0  0999 V2000
  -28.1229   -1.3353   28.4874 O   0  0  0  0  0  0  0  0  0  0  0  0
  -27.0637   -0.8242   28.8687 C   0  0  0  0  0  0  0  0  0  0  0  0
  -25.9464   -1.0396   28.8492 C   0  0  0  0  0  0  0  0  0  0  0  0
  -25.3522   -2.2524   28.5471 C   0  0  0  0  0  0  0  0  0  0  0  0
  -27.2573    0.6208   29.4840 N   0  0  0  0  0  0  0  0  0  0  0  0
  -26.2615    1.3937   29.8365 C   0  0  0  0  0  0  0  0  0  0  0  0
  -24.9553    0.9041   29.8149 C   0  0  0  0  0  0  0  0  0  0  0  0
  -24.6763   -0.2883   29.3924 C   0  0  0  0  0  0  0  0  0  0  0  0
  -24.0664   -2.7890   28.9558 C   0  0  0  0  0  0  0  0  0  0  0  0
  -23.0335   -2.0020   29.3354 C   0  0  0  0  0  0  0  0  0  0  0  0
  -23.3187   -0.7677   29.6037 C   0  0  0  0  0  0  0  0  0  0  0  0
  -22.2942    0.1590   30.0725 C   0  0  0  0  0  0  0  0  0  0  0  0
  -21.1229   -0.1770   29.9291 O   0  0  0  0  0  0  0  0  0  0  0  0
  -22.6528    1.3954   30.4943 N   0  0  0  0  0  0  0  0  0  0  0  0
  -23.8940    1.7487   30.3617 C   0  0  0  0  0  0  0  0  0  0  0  0
  1  2  2  0
  2  3  1  0
  2  5  1  0
  6  7  1  0
 11 12  1  0
 12 13  2  0
 12 14  1  0
  7 15  1  0
 14 15  1  0
  8  7  1  0
  6  5  1  0
  3  4  2  0
  4  9  1  0
  9 10  2  0
 10 11  1  0
 11  8  2  0
  8  3  1  0
M  END

$$$$
