No_518-gen_results/8p0m/2024-11-27-11-27-31/
     RDKit          3D

 19 20  0  0  0  0  0  0  0  0999 V2000
  -28.0162   -0.8135   28.8779 C   0  0  0  0  0  0  0  0  0  0  0  0
  -28.4690   -0.7850   29.8287 C   0  0  0  0  0  0  0  0  0  0  0  0
  -26.5042   -0.7777   28.8766 C   0  0  0  0  0  0  0  0  0  0  0  0
  -25.8305   -1.6807   29.6849 C   0  0  0  0  0  0  0  0  0  0  0  0
  -28.1490   -1.8854   30.9031 C   0  0  0  0  0  0  0  0  0  0  0  0
  -26.6460   -1.9561   31.0330 C   0  0  0  0  0  0  0  0  0  0  0  0
  -28.6274   -1.7308   32.1858 O   0  0  0  0  0  0  0  0  0  0  0  0
  -30.0168   -0.9269   29.8771 O   0  0  0  0  0  0  0  0  0  0  0  0
  -24.6534   -2.3030   29.3807 C   0  0  0  0  0  0  0  0  0  0  0  0
  -23.4721   -1.5067   29.2502 C   0  0  0  0  0  0  0  0  0  0  0  0
  -23.6749   -0.2225   29.5643 C   0  0  0  0  0  0  0  0  0  0  0  0
  -23.1756    0.3517   30.6543 C   0  0  0  0  0  0  0  0  0  0  0  0
  -23.0637    0.7183   28.3441 C   0  0  0  0  0  0  0  0  0  0  0  0
  -23.5738    1.3859   27.5793 C   0  0  0  0  0  0  0  0  0  0  0  0
  -25.0068    1.6417   27.5306 C   0  0  0  0  0  0  0  0  0  0  0  0
  -25.5755    2.3286   26.4139 C   0  0  0  0  0  0  0  0  0  0  0  0
  -22.9631    2.0118   26.4237 C   0  0  0  0  0  0  0  0  0  0  0  0
  -23.4469    2.8252   25.4787 C   0  0  0  0  0  0  0  0  0  0  0  0
  -24.8059    3.0399   25.5751 C   0  0  0  0  0  0  0  0  0  0  0  0
  1  2  1  0
  1  3  1  0
  3  4  1  0
  2  5  1  0
  4  6  1  0
  5  6  1  0
  5  7  1  0
  2  8  1  0
  4  9  1  0
  9 10  1  0
 10 11  1  0
 11 12  1  0
 11 13  1  0
 13 14  1  0
 14 15  2  0
 15 16  1  0
 16 19  2  0
 19 18  1  0
 18 17  2  0
 17 14  1  0
M  END

$$$$
