No_565-gen_results/8p0m/2024-11-27-11-27-31/
     RDKit          3D

 35 38  0  0  0  0  0  0  0  0999 V2000
  -28.0162   -0.8135   28.8779 C   0  0  0  0  0  0  0  0  0  0  0  0
  -27.0636   -0.1189   28.6079 C   0  0  0  0  0  0  0  0  0  0  0  0
  -27.0010    0.6913   27.4910 C   0  0  0  0  0  0  0  0  0  0  0  0
  -25.7770    1.0214   26.9135 C   0  0  0  0  0  0  0  0  0  0  0  0
  -24.5088    0.7364   27.5686 C   0  0  0  0  0  0  0  0  0  0  0  0
  -24.5930   -0.0361   28.7390 C   0  0  0  0  0  0  0  0  0  0  0  0
  -25.8114   -0.4771   29.1584 C   0  0  0  0  0  0  0  0  0  0  0  0
  -28.6413   -0.4024   30.1937 C   0  0  0  0  0  0  0  0  0  0  0  0
  -28.5021    0.6916   30.6007 C   0  0  0  0  0  0  0  0  0  0  0  0
  -29.1512    1.1258   31.9235 C   0  0  0  0  0  0  0  0  0  0  0  0
  -29.8626    0.1538   32.5971 C   0  0  0  0  0  0  0  0  0  0  0  0
  -29.2562   -1.5385   31.0228 C   0  0  0  0  0  0  0  0  0  0  0  0
  -29.3302   -2.7538   30.5280 F   0  0  0  0  0  0  0  0  0  0  0  0
  -29.8601   -1.2304   32.1777 C   0  0  0  0  0  0  0  0  0  0  0  0
  -23.1758    1.1260   27.1687 C   0  0  0  0  0  0  0  0  0  0  0  0
  -22.5141    2.0277   28.0479 C   0  0  0  0  0  0  0  0  0  0  0  0
  -28.1810    0.9826   26.6779 C   0  0  0  0  0  0  0  0  0  0  0  0
  -29.0836    1.5934   27.1591 O   0  0  0  0  0  0  0  0  0  0  0  0
  -28.2463    0.5583   25.4905 O   0  0  0  0  0  0  0  0  0  0  0  0
  -23.0537    2.6230   28.8915 F   0  0  0  0  0  0  0  0  0  0  0  0
  -21.5241    1.1702   28.6086 F   0  0  0  0  0  0  0  0  0  0  0  0
  -25.7043   -1.4597   30.6009 Cl  0  0  0  0  0  0  0  0  0  0  0  0
  -21.7691    2.8181   27.2549 F   0  0  0  0  0  0  0  0  0  0  0  0
  -29.4136    0.2059   24.8831 C   0  0  0  0  0  0  0  0  0  0  0  0
  -30.2833   -0.3847   25.7416 C   0  0  0  0  0  0  0  0  0  0  0  0
  -31.6987   -0.1116   25.4700 C   0  0  0  0  0  0  0  0  0  0  0  0
  -31.8665    0.0460   24.1602 C   0  0  0  0  0  0  0  0  0  0  0  0
  -31.0269    0.7770   23.2741 C   0  0  0  0  0  0  0  0  0  0  0  0
  -29.8992    1.2839   23.9912 C   0  0  0  0  0  0  0  0  0  0  0  0
  -32.6953   -1.0872   26.1584 C   0  0  0  0  0  0  0  0  0  0  0  0
  -33.0576   -0.9968   27.1417 C   0  0  0  0  0  0  0  0  0  0  0  0
  -33.3023   -1.3445   28.0764 C   0  0  0  0  0  0  0  0  0  0  0  0
  -33.9749   -0.5077   29.1692 C   0  0  0  0  0  0  0  0  0  0  0  0
  -34.0006    0.8112   29.0544 C   0  0  0  0  0  0  0  0  0  0  0  0
  -33.3181    0.6795   27.2793 C   0  0  0  0  0  0  0  0  0  0  0  0
  1  2  1  0
  1  8  1  0
 12 13  1  0
  5 15  1  0
 15 16  1  0
  3 17  1  0
 17 18  2  0
 17 19  1  0
 16 20  1  0
 16 21  1  0
  7 22  1  0
 16 23  1  0
 19 24  1  0
 24 25  1  0
 25 26  1  0
 26 27  1  0
 27 28  1  0
 24 29  1  0
 28 29  1  0
 26 30  1  0
 30 31  1  0
 31 32  2  0
 32 33  1  0
 33 34  2  0
 31 35  1  0
 34 35  1  0
  2  3  1  0
  3  4  2  0
  4  5  1  0
  5  6  2  0
  6  7  1  0
  7  2  2  0
  8  9  2  0
  9 10  1  0
 10 11  2  0
 11 14  1  0
 14 12  2  0
 12  8  1  0
M  END

$$$$
