No_545-gen_results/8p0m/2024-11-27-11-27-31/
     RDKit          3D

 21 22  0  0  0  0  0  0  0  0999 V2000
  -28.0162   -0.8135   28.8779 C   0  0  0  0  0  0  0  0  0  0  0  0
  -28.4690   -0.7850   29.8287 C   0  0  0  0  0  0  0  0  0  0  0  0
  -27.1356    0.2359   28.5352 C   0  0  0  0  0  0  0  0  0  0  0  0
  -26.8745    1.2825   29.3982 C   0  0  0  0  0  0  0  0  0  0  0  0
  -28.3613    0.1987   30.9244 C   0  0  0  0  0  0  0  0  0  0  0  0
  -27.5277    1.2234   30.6356 C   0  0  0  0  0  0  0  0  0  0  0  0
  -26.3879    0.2914   27.2334 C   0  0  0  0  0  0  0  0  0  0  0  0
  -25.1510    0.3034   27.2565 C   0  0  0  0  0  0  0  0  0  0  0  0
  -24.3395    0.2047   28.4288 C   0  0  0  0  0  0  0  0  0  0  0  0
  -23.4585    1.1453   28.8412 C   0  0  0  0  0  0  0  0  0  0  0  0
  -23.0849    2.2146   27.9375 C   0  0  0  0  0  0  0  0  0  0  0  0
  -23.6337    2.1861   26.6253 C   0  0  0  0  0  0  0  0  0  0  0  0
  -24.6672    1.3826   26.2731 C   0  0  0  0  0  0  0  0  0  0  0  0
  -27.1513    0.0991   26.0470 C   0  0  0  0  0  0  0  0  0  0  0  0
  -28.1563    0.8818   25.7570 N   0  0  0  0  0  0  0  0  0  0  0  0
  -28.8987    0.6952   24.6687 C   0  0  0  0  0  0  0  0  0  0  0  0
  -26.5805   -0.3496   25.0879 O   0  0  0  0  0  0  0  0  0  0  0  0
  -22.8253    1.0219   29.9893 O   0  0  0  0  0  0  0  0  0  0  0  0
  -27.2934    2.3357   31.6398 C   0  0  0  0  0  0  0  0  0  0  0  0
  -26.2663    2.3219   32.3565 N   0  0  0  0  0  0  0  0  0  0  0  0
  -25.6703    3.3746   32.9205 C   0  0  0  0  0  0  0  0  0  0  0  0
  3  7  1  0
  8  9  1  0
  9 10  1  0
 10 11  1  0
  8 13  1  0
 12 13  1  0
  7 14  1  0
 14 15  1  0
 15 16  1  0
 14 17  2  0
 10 18  2  0
  6 19  1  0
 19 20  1  0
 20 21  2  0
  7  8  1  0
 12 11  1  0
  1  2  2  0
  2  5  1  0
  5  6  2  0
  6  4  1  0
  4  3  2  0
  3  1  1  0
M  END

$$$$
