No_553-gen_results/8p0m/2024-11-27-11-27-31/
     RDKit          3D

 35 39  0  0  0  0  0  0  0  0999 V2000
  -28.1229   -1.3353   28.4874 O   0  0  0  0  0  0  0  0  0  0  0  0
  -27.4806   -0.4044   28.7094 C   0  0  0  0  0  0  0  0  0  0  0  0
  -26.3804   -0.0867   27.9394 C   0  0  0  0  0  0  0  0  0  0  0  0
  -27.4232    0.1749   30.0549 N   0  0  0  0  0  0  0  0  0  0  0  0
  -26.1558    0.1159   26.9677 C   0  0  0  0  0  0  0  0  0  0  0  0
  -27.1674    0.2216   25.9335 C   0  0  0  0  0  0  0  0  0  0  0  0
  -28.3907    0.5912   26.2661 C   0  0  0  0  0  0  0  0  0  0  0  0
  -29.3561    0.6872   25.1543 C   0  0  0  0  0  0  0  0  0  0  0  0
  -28.8800    0.4208   23.9174 C   0  0  0  0  0  0  0  0  0  0  0  0
  -26.8769    0.1062   24.5431 C   0  0  0  0  0  0  0  0  0  0  0  0
  -27.6845    0.1981   23.6024 C   0  0  0  0  0  0  0  0  0  0  0  0
  -26.6594    1.1341   30.5384 C   0  0  0  0  0  0  0  0  0  0  0  0
  -25.5230    1.3588   29.7577 C   0  0  0  0  0  0  0  0  0  0  0  0
  -25.4722    1.3037   28.4743 C   0  0  0  0  0  0  0  0  0  0  0  0
  -28.5672   -0.2852   30.9638 C   0  0  0  0  0  0  0  0  0  0  0  0
  -24.1413    1.2689   27.8354 C   0  0  0  0  0  0  0  0  0  0  0  0
  -24.7557   -0.3433   26.3700 C   0  0  0  0  0  0  0  0  0  0  0  0
  -23.9153    0.8668   26.5398 C   0  0  0  0  0  0  0  0  0  0  0  0
  -23.0786    0.7257   28.7286 C   0  0  0  0  0  0  0  0  0  0  0  0
  -22.7673   -0.2949   29.0956 C   0  0  0  0  0  0  0  0  0  0  0  0
  -21.5946   -0.6706   29.8069 C   0  0  0  0  0  0  0  0  0  0  0  0
  -23.6372   -1.5193   28.9077 C   0  0  0  0  0  0  0  0  0  0  0  0
  -23.3326   -2.8015   29.4940 C   0  0  0  0  0  0  0  0  0  0  0  0
  -24.4289   -3.6793   29.0024 C   0  0  0  0  0  0  0  0  0  0  0  0
  -24.2440   -5.0487   28.8847 C   0  0  0  0  0  0  0  0  0  0  0  0
  -25.3764   -5.8791   28.8374 C   0  0  0  0  0  0  0  0  0  0  0  0
  -26.5859   -5.2969   29.2879 C   0  0  0  0  0  0  0  0  0  0  0  0
  -26.7318   -3.9251   29.6810 C   0  0  0  0  0  0  0  0  0  0  0  0
  -25.6056   -3.1472   29.5845 C   0  0  0  0  0  0  0  0  0  0  0  0
  -29.7587   -0.0914   30.6821 C   0  0  0  0  0  0  0  0  0  0  0  0
  -30.7314   -0.9120   30.9895 C   0  0  0  0  0  0  0  0  0  0  0  0
  -30.4925   -1.8974   32.0228 C   0  0  0  0  0  0  0  0  0  0  0  0
  -29.3119   -1.9667   32.4396 C   0  0  0  0  0  0  0  0  0  0  0  0
  -28.1440   -1.3264   31.8630 C   0  0  0  0  0  0  0  0  0  0  0  0
  -23.8858    2.9664   27.6409 C   0  0  0  0  0  0  0  0  0  0  0  0
  1  2  2  0
  2  3  1  0
  2  4  1  0
  3  5  1  0
  4 12  1  0
  3 14  1  0
 13 14  1  0
  4 15  1  0
 14 16  1  0
  5 17  1  0
 16 18  1  0
 17 18  1  0
 16 19  1  0
 19 20  1  0
 20 21  2  0
 20 22  1  0
 22 23  1  0
 23 24  1  0
 16 35  1  0
  5  6  1  0
 13 12  1  0
 24 25  2  0
 25 26  1  0
 26 27  2  0
 27 28  1  0
 28 29  2  0
 29 24  1  0
  6  7  2  0
  7  8  1  0
  8  9  2  0
  9 11  1  0
 11 10  2  0
 10  6  1  0
 15 30  2  0
 30 31  1  0
 31 32  2  0
 32 33  1  0
 33 34  2  0
 34 15  1  0
M  END

$$$$
