No_562-gen_results/8p0m/2024-11-27-11-27-31/
     RDKit          3D

 10 10  0  0  0  0  0  0  0  0999 V2000
  -28.0162   -0.8135   28.8779 C   0  0  0  0  0  0  0  0  0  0  0  0
  -28.4690   -0.7850   29.8287 C   0  0  0  0  0  0  0  0  0  0  0  0
  -27.0871    0.2903   28.6377 C   0  0  0  0  0  0  0  0  0  0  0  0
  -26.0239    0.3644   29.2526 C   0  0  0  0  0  0  0  0  0  0  0  0
  -27.5342   -0.6972   31.0995 C   0  0  0  0  0  0  0  0  0  0  0  0
  -26.3773    0.1532   30.8268 C   0  0  0  0  0  0  0  0  0  0  0  0
  -29.6603   -1.6236   30.2827 C   0  0  0  0  0  0  0  0  0  0  0  0
  -29.6841   -2.7546   30.6520 N   0  0  0  0  0  0  0  0  0  0  0  0
  -30.9544   -0.9331   30.1172 C   0  0  0  0  0  0  0  0  0  0  0  0
  -28.5000   -3.5672   30.8099 C   0  0  0  0  0  0  0  0  0  0  0  0
  1  2  1  0
  1  3  1  0
  3  4  3  0
  2  5  1  0
  4  6  1  0
  5  6  1  0
  2  7  1  0
  7  8  2  3
  7  9  1  0
  8 10  1  0
M  END

$$$$
