No_577-gen_results/8p0m/2024-11-27-11-27-31/
     RDKit          3D

 10 10  0  0  0  0  0  0  0  0999 V2000
  -28.0162   -0.8135   28.8779 C   0  0  0  0  0  0  0  0  0  0  0  0
  -27.0636   -0.1190   28.6079 C   0  0  0  0  0  0  0  0  0  0  0  0
  -25.7923   -0.4302   29.0761 C   0  0  0  0  0  0  0  0  0  0  0  0
  -25.5756   -1.5654   29.9363 C   0  0  0  0  0  0  0  0  0  0  0  0
  -26.7354   -2.3004   30.2173 C   0  0  0  0  0  0  0  0  0  0  0  0
  -27.9184   -1.9537   29.7629 C   0  0  0  0  0  0  0  0  0  0  0  0
  -29.2678   -2.8890   30.2152 Cl  0  0  0  0  0  0  0  0  0  0  0  0
  -27.1068    1.1096   27.7591 C   0  0  0  0  0  0  0  0  0  0  0  0
  -26.4599    1.2735   26.8247 O   0  0  0  0  0  0  0  0  0  0  0  0
  -28.0938    1.9326   28.0655 O   0  0  0  0  0  0  0  0  0  0  0  0
  6  7  1  0
  2  8  1  0
  8  9  2  0
  8 10  1  0
  1  2  2  0
  2  3  1  0
  3  4  2  0
  4  5  1  0
  5  6  2  0
  6  1  1  0
M  END

$$$$
