No_558-gen_results/8p0m/2024-11-27-11-27-31/
     RDKit          3D

 25 27  0  0  0  0  0  0  0  0999 V2000
  -28.0162   -0.8135   28.8779 C   0  0  0  0  0  0  0  0  0  0  0  0
  -28.4690   -0.7850   29.8287 C   0  0  0  0  0  0  0  0  0  0  0  0
  -28.1960    0.3478   28.0550 C   0  0  0  0  0  0  0  0  0  0  0  0
  -29.0191    1.3501   28.3782 C   0  0  0  0  0  0  0  0  0  0  0  0
  -29.6249    1.2683   29.6012 C   0  0  0  0  0  0  0  0  0  0  0  0
  -29.3821    0.1816   30.4004 C   0  0  0  0  0  0  0  0  0  0  0  0
  -27.4497    0.3750   26.7070 C   0  0  0  0  0  0  0  0  0  0  0  0
  -27.8820    0.6874   25.6698 C   0  0  0  0  0  0  0  0  0  0  0  0
  -25.9804    0.0706   26.7955 C   0  0  0  0  0  0  0  0  0  0  0  0
  -25.0929    1.0432   27.3637 C   0  0  0  0  0  0  0  0  0  0  0  0
  -23.9666    0.6917   28.0492 C   0  0  0  0  0  0  0  0  0  0  0  0
  -23.8837   -0.4676   28.7855 C   0  0  0  0  0  0  0  0  0  0  0  0
  -24.7464   -1.5191   28.4098 C   0  0  0  0  0  0  0  0  0  0  0  0
  -25.4167   -0.8937   26.0870 N   0  0  0  0  0  0  0  0  0  0  0  0
  -25.1676   -1.8779   27.1543 C   0  0  0  0  0  0  0  0  0  0  0  0
  -25.2734    2.4993   27.0468 C   0  0  0  0  0  0  0  0  0  0  0  0
  -27.4815    1.7616   24.8684 C   0  0  0  0  0  0  0  0  0  0  0  0
  -29.0495   -0.0427   25.1317 C   0  0  0  0  0  0  0  0  0  0  0  0
  -29.6041    0.1514   23.9128 C   0  0  0  0  0  0  0  0  0  0  0  0
  -28.0731    2.0166   23.5966 C   0  0  0  0  0  0  0  0  0  0  0  0
  -29.1269    1.2736   23.2470 C   0  0  0  0  0  0  0  0  0  0  0  0
  -25.4913    3.3451   28.2754 C   0  0  0  0  0  0  0  0  0  0  0  0
  -26.4265    4.2045   28.1832 C   0  0  0  0  0  0  0  0  0  0  0  0
  -26.8740    4.8205   27.1490 C   0  0  0  0  0  0  0  0  0  0  0  0
  -27.9754    5.6708   27.1782 C   0  0  0  0  0  0  0  0  0  0  0  0
  3  7  1  0
  7  8  1  0
  7  9  1  0
  9 10  1  0
 10 11  2  0
 11 12  1  0
 12 13  2  0
  9 14  1  0
 13 15  1  0
 14 15  1  0
 10 16  1  0
 16 22  1  0
 22 23  1  0
 23 24  2  3
 24 25  1  0
  1  2  2  0
  2  6  1  0
  6  5  2  0
  5  4  1  0
  4  3  2  0
  3  1  1  0
  8 17  2  0
 17 20  1  0
 20 21  2  0
 21 19  1  0
 19 18  2  0
 18  8  1  0
M  END

$$$$
