No_582-gen_results/8p0m/2024-11-27-11-27-31/
     RDKit          3D

 26 29  0  0  0  0  0  0  0  0999 V2000
  -28.1229   -1.3353   28.4874 O   0  0  0  0  0  0  0  0  0  0  0  0
  -27.0637   -0.8242   28.8687 C   0  0  0  0  0  0  0  0  0  0  0  0
  -25.9773   -1.1378   28.8137 N   0  0  0  0  0  0  0  0  0  0  0  0
  -24.7669   -0.3464   29.1634 C   0  0  0  0  0  0  0  0  0  0  0  0
  -27.1956    0.6551   29.5913 C   0  0  0  0  0  0  0  0  0  0  0  0
  -24.9526    0.8453   29.7586 C   0  0  0  0  0  0  0  0  0  0  0  0
  -26.1881    1.3390   29.9057 C   0  0  0  0  0  0  0  0  0  0  0  0
  -23.5178   -0.8725   29.0021 N   0  0  0  0  0  0  0  0  0  0  0  0
  -22.4203   -0.0670   29.2325 C   0  0  0  0  0  0  0  0  0  0  0  0
  -22.5210    1.1227   29.6719 N   0  0  0  0  0  0  0  0  0  0  0  0
  -23.6855    1.6086   30.0193 C   0  0  0  0  0  0  0  0  0  0  0  0
  -21.1743   -0.5707   28.9757 N   0  0  0  0  0  0  0  0  0  0  0  0
  -28.6663    1.0481   29.7348 C   0  0  0  0  0  0  0  0  0  0  0  0
  -29.1924    1.6792   28.7669 C   0  0  0  0  0  0  0  0  0  0  0  0
  -30.5302    2.0499   28.8347 C   0  0  0  0  0  0  0  0  0  0  0  0
  -31.2479    1.7840   30.0616 C   0  0  0  0  0  0  0  0  0  0  0  0
  -29.3117    0.6806   30.9169 C   0  0  0  0  0  0  0  0  0  0  0  0
  -28.6031   -0.1237   31.9871 C   0  0  0  0  0  0  0  0  0  0  0  0
  -30.6239    1.0851   31.1066 C   0  0  0  0  0  0  0  0  0  0  0  0
  -28.5944   -0.0160   33.0671 C   0  0  0  0  0  0  0  0  0  0  0  0
  -29.2384    1.1730   33.7413 C   0  0  0  0  0  0  0  0  0  0  0  0
  -29.1267    1.3193   35.1445 C   0  0  0  0  0  0  0  0  0  0  0  0
  -28.4645    0.2929   35.8045 C   0  0  0  0  0  0  0  0  0  0  0  0
  -27.8543   -0.7579   35.3005 C   0  0  0  0  0  0  0  0  0  0  0  0
  -27.9146   -0.8942   33.9187 C   0  0  0  0  0  0  0  0  0  0  0  0
  -28.9630   -1.5258   31.6296 F   0  0  0  0  0  0  0  0  0  0  0  0
  1  2  2  0
  2  3  1  0
  3  4  1  0
  2  5  1  0
  6  7  1  0
  9 12  1  0
  5 13  1  0
 17 18  1  0
 18 26  1  0
 18 20  1  0
  7  5  1  0
 13 14  2  0
 14 15  1  0
 15 16  2  0
 16 19  1  0
 19 17  2  0
 17 13  1  0
 20 21  2  0
 21 22  1  0
 22 23  2  0
 23 24  1  0
 24 25  2  0
 25 20  1  0
  4  8  2  0
  8  9  1  0
  9 10  2  0
 10 11  1  0
 11  6  2  0
  6  4  1  0
M  END

$$$$
