No_591-gen_results/8p0m/2024-11-27-11-27-31/
     RDKit          3D

 22 23  0  0  0  0  0  0  0  0999 V2000
  -28.0162   -0.8135   28.8779 C   0  0  0  0  0  0  0  0  0  0  0  0
  -27.0636   -0.1189   28.6079 C   0  0  0  0  0  0  0  0  0  0  0  0
  -25.7923   -0.4302   29.0761 C   0  0  0  0  0  0  0  0  0  0  0  0
  -25.5756   -1.5654   29.9363 C   0  0  0  0  0  0  0  0  0  0  0  0
  -26.7354   -2.3004   30.2173 C   0  0  0  0  0  0  0  0  0  0  0  0
  -27.9184   -1.9537   29.7629 C   0  0  0  0  0  0  0  0  0  0  0  0
  -27.1057    1.1023   27.7593 C   0  0  0  0  0  0  0  0  0  0  0  0
  -26.1219    1.4820   27.0232 C   0  0  0  0  0  0  0  0  0  0  0  0
  -24.7142    1.1299   27.4889 C   0  0  0  0  0  0  0  0  0  0  0  0
  -24.5718    0.0966   28.4066 C   0  0  0  0  0  0  0  0  0  0  0  0
  -23.5495    1.7790   26.9027 C   0  0  0  0  0  0  0  0  0  0  0  0
  -22.4536    1.9030   27.6175 N   0  0  0  0  0  0  0  0  0  0  0  0
  -23.7164    2.7511   25.5874 Cl  0  0  0  0  0  0  0  0  0  0  0  0
  -28.9983   -2.6445   30.1937 O   0  0  0  0  0  0  0  0  0  0  0  0
  -30.1385   -2.0871   30.4797 C   0  0  0  0  0  0  0  0  0  0  0  0
  -30.6971   -2.5910   31.6371 C   0  0  0  0  0  0  0  0  0  0  0  0
  -30.0899   -3.5059   32.3407 C   0  0  0  0  0  0  0  0  0  0  0  0
  -30.4080   -3.7439   33.7222 C   0  0  0  0  0  0  0  0  0  0  0  0
  -29.5132   -4.4507   34.5135 C   0  0  0  0  0  0  0  0  0  0  0  0
  -29.6337   -4.4505   35.9062 C   0  0  0  0  0  0  0  0  0  0  0  0
  -30.7331   -3.8203   36.4936 C   0  0  0  0  0  0  0  0  0  0  0  0
  -31.5798   -3.1378   35.7010 C   0  0  0  0  0  0  0  0  0  0  0  0
  9 11  1  0
 11 12  1  0
 11 13  1  0
  6 14  1  0
 14 15  1  0
 15 16  1  0
 16 17  2  3
 17 18  1  0
 18 19  2  3
 19 20  1  0
 20 21  2  3
 21 22  1  0
  1  2  2  0
  3  4  2  0
  4  5  1  0
  5  6  2  0
  6  1  1  0
  2  3  1  0
  3 10  1  0
 10  9  2  0
  9  8  1  0
  8  7  2  0
  7  2  1  0
M  END

$$$$
