No_585-gen_results/8p0m/2024-11-27-11-27-31/
     RDKit          3D

 20 21  0  0  0  0  0  0  0  0999 V2000
  -28.0162   -0.8135   28.8779 C   0  0  0  0  0  0  0  0  0  0  0  0
  -28.4690   -0.7850   29.8287 C   0  0  0  0  0  0  0  0  0  0  0  0
  -28.1816    0.4277   28.1134 C   0  0  0  0  0  0  0  0  0  0  0  0
  -28.9841    1.4155   28.5154 C   0  0  0  0  0  0  0  0  0  0  0  0
  -29.3802    0.1384   30.4612 C   0  0  0  0  0  0  0  0  0  0  0  0
  -29.5415    1.2736   29.7242 C   0  0  0  0  0  0  0  0  0  0  0  0
  -27.4586    0.4934   26.7701 C   0  0  0  0  0  0  0  0  0  0  0  0
  -26.1290    0.3456   26.7317 N   0  0  0  0  0  0  0  0  0  0  0  0
  -25.4038   -0.0103   27.7776 C   0  0  0  0  0  0  0  0  0  0  0  0
  -24.5904    1.0317   28.4929 C   0  0  0  0  0  0  0  0  0  0  0  0
  -23.8833    0.6822   29.5740 C   0  0  0  0  0  0  0  0  0  0  0  0
  -23.8387   -0.6569   30.0419 C   0  0  0  0  0  0  0  0  0  0  0  0
  -25.3214   -1.2854   28.3719 C   0  0  0  0  0  0  0  0  0  0  0  0
  -24.4935   -1.6184   29.4188 C   0  0  0  0  0  0  0  0  0  0  0  0
  -28.1053    0.9654   25.8537 O   0  0  0  0  0  0  0  0  0  0  0  0
  -28.2803   -2.2508   30.9451 Cl  0  0  0  0  0  0  0  0  0  0  0  0
  -25.4236    0.5271   25.5234 C   0  0  0  0  0  0  0  0  0  0  0  0
  -24.5650    2.4344   28.0445 C   0  0  0  0  0  0  0  0  0  0  0  0
  -23.7612    2.8155   27.1366 N   0  0  0  0  0  0  0  0  0  0  0  0
  -25.4696    3.2828   28.5054 O   0  0  0  0  0  0  0  0  0  0  0  0
  3  7  1  0
  7  8  1  0
  8  9  1  0
  7 15  2  0
  2 16  1  0
  8 17  1  0
 10 18  1  0
 18 19  1  0
 18 20  2  0
  1  2  2  0
  2  5  1  0
  5  6  2  0
  6  4  1  0
  4  3  2  0
  3  1  1  0
  9 10  2  0
 10 11  1  0
 11 12  2  0
 12 14  1  0
 14 13  2  0
 13  9  1  0
M  END

$$$$
