No_500-gen_results/8p0m/2024-11-27-11-27-31/
     RDKit          3D

  7  6  0  0  0  0  0  0  0  0999 V2000
  -28.0727   -1.2542   28.5316 F   0  0  0  0  0  0  0  0  0  0  0  0
  -27.3591   -0.3792   28.7224 C   0  0  0  0  0  0  0  0  0  0  0  0
  -26.3323   -0.6441   29.4520 C   0  0  0  0  0  0  0  0  0  0  0  0
  -26.0196   -2.0052   30.0335 C   0  0  0  0  0  0  0  0  0  0  0  0
  -24.8658   -2.3357   30.6202 C   0  0  0  0  0  0  0  0  0  0  0  0
  -23.9306   -1.2948   30.8186 C   0  0  0  0  0  0  0  0  0  0  0  0
  -24.0623    0.0015   30.4326 C   0  0  0  0  0  0  0  0  0  0  0  0
  1  2  1  0
  2  3  2  3
  3  4  1  0
  4  5  1  0
  5  6  2  3
  6  7  1  0
M  END

$$$$
