No_532-gen_results/8p0m/2024-11-27-11-27-31/
     RDKit          3D

 29 32  0  0  0  0  0  0  0  0999 V2000
  -28.0162   -0.8135   28.8779 C   0  0  0  0  0  0  0  0  0  0  0  0
  -27.0636   -0.1189   28.6079 C   0  0  0  0  0  0  0  0  0  0  0  0
  -25.7923   -0.4302   29.0761 C   0  0  0  0  0  0  0  0  0  0  0  0
  -25.5756   -1.5654   29.9363 C   0  0  0  0  0  0  0  0  0  0  0  0
  -26.7354   -2.3004   30.2173 C   0  0  0  0  0  0  0  0  0  0  0  0
  -27.9184   -1.9537   29.7629 C   0  0  0  0  0  0  0  0  0  0  0  0
  -29.0001   -2.7012   30.1151 O   0  0  0  0  0  0  0  0  0  0  0  0
  -24.5290    0.3490   28.7998 C   0  0  0  0  0  0  0  0  0  0  0  0
  -23.3442    0.0060   29.1658 C   0  0  0  0  0  0  0  0  0  0  0  0
  -22.1783    0.7811   28.7783 C   0  0  0  0  0  0  0  0  0  0  0  0
  -22.3218    1.7499   27.7727 C   0  0  0  0  0  0  0  0  0  0  0  0
  -24.6102    1.3558   27.7479 C   0  0  0  0  0  0  0  0  0  0  0  0
  -23.5148    2.0341   27.3068 C   0  0  0  0  0  0  0  0  0  0  0  0
  -23.7239    3.4302   26.0161 Br  0  0  0  0  0  0  0  0  0  0  0  0
  -30.1218   -2.1347   30.5882 C   0  0  0  0  0  0  0  0  0  0  0  0
  -30.5764   -2.8482   31.6809 C   0  0  0  0  0  0  0  0  0  0  0  0
  -29.7848   -3.6880   32.3599 C   0  0  0  0  0  0  0  0  0  0  0  0
  -31.1569   -1.9251   32.6789 O   0  0  0  0  0  0  0  0  0  0  0  0
  -29.6122   -5.0328   31.9334 C   0  0  0  0  0  0  0  0  0  0  0  0
  -30.5525   -5.5581   31.5013 O   0  0  0  0  0  0  0  0  0  0  0  0
  -30.0898   -3.8753   33.7580 O   0  0  0  0  0  0  0  0  0  0  0  0
  -31.0814   -1.7815   29.5544 C   0  0  0  0  0  0  0  0  0  0  0  0
  -31.3148   -0.4131   29.3380 C   0  0  0  0  0  0  0  0  0  0  0  0
  -32.3867    0.0762   29.6410 C   0  0  0  0  0  0  0  0  0  0  0  0
  -32.4985    1.4434   30.0677 C   0  0  0  0  0  0  0  0  0  0  0  0
  -31.5328    2.3518   29.5694 C   0  0  0  0  0  0  0  0  0  0  0  0
  -30.3437    1.7879   29.0062 C   0  0  0  0  0  0  0  0  0  0  0  0
  -30.2402    0.4350   28.9401 C   0  0  0  0  0  0  0  0  0  0  0  0
  -29.3854   -0.1430   28.7327 C   0  0  0  0  0  0  0  0  0  0  0  0
  6  7  1  0
  3  8  1  0
 13 14  1  0
  7 15  1  0
 15 16  1  0
 16 17  1  0
 16 18  1  0
 17 19  1  0
 19 20  2  0
 17 21  1  0
 15 22  1  0
 22 23  1  0
  1 29  1  0
 28 29  1  0
  1  2  2  0
  2  3  1  0
  3  4  2  0
  4  5  1  0
  5  6  2  0
  6  1  1  0
 23 24  2  0
 24 25  1  0
 25 26  2  0
 26 27  1  0
 27 28  2  0
 28 23  1  0
  8  9  2  0
  9 10  1  0
 10 11  2  0
 11 13  1  0
 13 12  2  0
 12  8  1  0
M  END

$$$$
