No_571-gen_results/8p0m/2024-11-27-11-27-31/
     RDKit          3D

 30 34  0  0  0  0  0  0  0  0999 V2000
  -28.0162   -0.8135   28.8779 C   0  0  0  0  0  0  0  0  0  0  0  0
  -28.4690   -0.7850   29.8287 C   0  0  0  0  0  0  0  0  0  0  0  0
  -26.5042   -0.7777   28.8766 C   0  0  0  0  0  0  0  0  0  0  0  0
  -25.6540   -0.6597   27.7191 C   0  0  0  0  0  0  0  0  0  0  0  0
  -28.1834   -0.8425   30.8354 C   0  0  0  0  0  0  0  0  0  0  0  0
  -26.7573   -0.8210   31.2264 C   0  0  0  0  0  0  0  0  0  0  0  0
  -25.8874   -0.7938   30.1755 C   0  0  0  0  0  0  0  0  0  0  0  0
  -25.1042    0.6500   27.4414 C   0  0  0  0  0  0  0  0  0  0  0  0
  -23.8316    0.8355   27.8759 C   0  0  0  0  0  0  0  0  0  0  0  0
  -23.1636    2.0617   27.4539 C   0  0  0  0  0  0  0  0  0  0  0  0
  -25.7883    1.6100   26.7150 C   0  0  0  0  0  0  0  0  0  0  0  0
  -27.1235    1.3593   26.2557 C   0  0  0  0  0  0  0  0  0  0  0  0
  -23.8348    2.9435   26.6590 C   0  0  0  0  0  0  0  0  0  0  0  0
  -25.1756    2.7525   26.2789 C   0  0  0  0  0  0  0  0  0  0  0  0
  -28.0751    2.3608   26.5537 C   0  0  0  0  0  0  0  0  0  0  0  0
  -27.4694    0.2881   25.3947 C   0  0  0  0  0  0  0  0  0  0  0  0
  -28.4862    0.4996   24.5239 C   0  0  0  0  0  0  0  0  0  0  0  0
  -29.2828    2.3942   25.8667 C   0  0  0  0  0  0  0  0  0  0  0  0
  -29.5673    1.3988   24.8923 C   0  0  0  0  0  0  0  0  0  0  0  0
  -30.1652   -0.6936   29.5859 C   0  0  0  0  0  0  0  0  0  0  0  0
  -30.7887   -1.6753   29.7751 O   0  0  0  0  0  0  0  0  0  0  0  0
  -30.6225    0.3000   28.7875 O   0  0  0  0  0  0  0  0  0  0  0  0
  -27.8138    3.4014   27.5867 C   0  0  0  0  0  0  0  0  0  0  0  0
  -28.5625    3.2261   28.7534 C   0  0  0  0  0  0  0  0  0  0  0  0
  -27.9408    3.5708   29.9420 C   0  0  0  0  0  0  0  0  0  0  0  0
  -26.7439    4.2540   29.9989 C   0  0  0  0  0  0  0  0  0  0  0  0
  -26.0550    4.4553   28.7609 C   0  0  0  0  0  0  0  0  0  0  0  0
  -26.3434    3.5309   27.7712 C   0  0  0  0  0  0  0  0  0  0  0  0
  -25.4089    3.3884   27.0476 C   0  0  0  0  0  0  0  0  0  0  0  0
  -24.9775    4.8080   26.6246 C   0  0  0  0  0  0  0  0  0  0  0  0
  3  4  1  0
  4  8  1  0
 11 12  1  0
  2 20  1  0
 20 21  2  0
 20 22  1  0
 15 23  1  0
 14 29  1  0
 28 29  1  0
 29 30  1  0
  8  9  2  0
  9 10  1  0
 10 13  2  0
 13 14  1  0
 14 11  2  0
 11  8  1  0
 23 24  2  0
 24 25  1  0
 25 26  2  0
 26 27  1  0
 27 28  2  0
 28 23  1  0
  1  2  2  0
  2  5  1  0
  5  6  2  0
  6  7  1  0
  7  3  2  0
  3  1  1  0
 12 15  2  0
 15 18  1  0
 18 19  2  0
 19 17  1  0
 17 16  2  0
 16 12  1  0
M  END

$$$$
