No_570-gen_results/8p0m/2024-11-27-11-27-31/
     RDKit          3D

 19 19  0  0  0  0  0  0  0  0999 V2000
  -28.0727   -1.2542   28.5316 F   0  0  0  0  0  0  0  0  0  0  0  0
  -27.3591   -0.3792   28.7224 C   0  0  0  0  0  0  0  0  0  0  0  0
  -26.8100    0.1885   27.6513 C   0  0  0  0  0  0  0  0  0  0  0  0
  -25.6015    0.9529   27.6828 C   0  0  0  0  0  0  0  0  0  0  0  0
  -25.0371    1.2332   29.0000 C   0  0  0  0  0  0  0  0  0  0  0  0
  -25.6162    0.5855   30.0870 C   0  0  0  0  0  0  0  0  0  0  0  0
  -26.6061   -0.2296   29.9624 C   0  0  0  0  0  0  0  0  0  0  0  0
  -24.0460    2.0502   29.0717 F   0  0  0  0  0  0  0  0  0  0  0  0
  -27.4549   -0.0148   25.9121 Br  0  0  0  0  0  0  0  0  0  0  0  0
  -27.1437   -0.8469   31.0702 O   0  0  0  0  0  0  0  0  0  0  0  0
  -25.0251    1.7741   26.2913 Cl  0  0  0  0  0  0  0  0  0  0  0  0
  -24.9096    0.9165   31.4222 C   0  0  0  0  0  0  0  0  0  0  0  0
  -24.6678    0.0585   32.1306 O   0  0  0  0  0  0  0  0  0  0  0  0
  -25.1249    2.2350   31.8876 N   0  0  0  0  0  0  0  0  0  0  0  0
  -25.9693    2.9269   32.4268 C   0  0  0  0  0  0  0  0  0  0  0  0
  -25.7064    4.2385   32.7051 C   0  0  0  0  0  0  0  0  0  0  0  0
  -25.1384    5.0923   32.2501 C   0  0  0  0  0  0  0  0  0  0  0  0
  -24.8214    5.8860   31.5816 C   0  0  0  0  0  0  0  0  0  0  0  0
  -24.5132    6.9975   30.7153 C   0  0  0  0  0  0  0  0  0  0  0  0
  1  2  1  0
  5  8  1  0
  3  9  1  0
  7 10  1  0
  4 11  1  0
  6 12  1  0
 12 13  2  0
 12 14  1  0
 14 15  1  0
 15 16  2  3
 16 17  1  0
 17 18  3  0
 18 19  1  0
  2  3  2  0
  3  4  1  0
  4  5  2  0
  5  6  1  0
  6  7  2  0
  7  2  1  0
M  END

$$$$
