No_522-gen_results/8p0m/2024-11-27-11-27-31/
     RDKit          3D

 16 17  0  0  0  0  0  0  0  0999 V2000
  -28.0162   -0.8135   28.8779 C   0  0  0  0  0  0  0  0  0  0  0  0
  -28.4690   -0.7850   29.8287 C   0  0  0  0  0  0  0  0  0  0  0  0
  -26.5042   -0.7777   28.8766 C   0  0  0  0  0  0  0  0  0  0  0  0
  -25.8103   -0.8531   30.1028 C   0  0  0  0  0  0  0  0  0  0  0  0
  -27.9906   -0.8916   31.2257 C   0  0  0  0  0  0  0  0  0  0  0  0
  -26.6042   -0.8676   31.2652 C   0  0  0  0  0  0  0  0  0  0  0  0
  -30.0773   -0.8857   30.0240 C   0  0  0  0  0  0  0  0  0  0  0  0
  -30.6406   -1.8993   30.1420 O   0  0  0  0  0  0  0  0  0  0  0  0
  -30.7443    0.3043   29.7721 N   0  0  0  0  0  0  0  0  0  0  0  0
  -32.1554    0.2895   29.7136 C   0  0  0  0  0  0  0  0  0  0  0  0
  -30.0476    1.5766   29.6037 C   0  0  0  0  0  0  0  0  0  0  0  0
  -30.2017    2.4420   30.7144 C   0  0  0  0  0  0  0  0  0  0  0  0
  -29.5423    3.6819   30.5999 C   0  0  0  0  0  0  0  0  0  0  0  0
  -28.7844    4.0187   29.4444 C   0  0  0  0  0  0  0  0  0  0  0  0
  -29.2797    1.8742   28.5172 C   0  0  0  0  0  0  0  0  0  0  0  0
  -28.6338    3.1160   28.4271 C   0  0  0  0  0  0  0  0  0  0  0  0
  2  7  1  0
  7  8  2  0
  7  9  1  0
  9 10  1  0
  9 11  1  0
 11 12  2  0
 12 13  1  0
 13 14  2  0
 14 16  1  0
 16 15  2  0
 15 11  1  0
  1  2  2  0
  2  5  1  0
  5  6  2  0
  6  4  1  0
  4  3  2  0
  3  1  1  0
M  END

$$$$
