No_588-gen_results/8p0m/2024-11-27-11-27-31/
     RDKit          3D

 14 16  0  0  0  0  0  0  0  0999 V2000
  -28.0544   -1.0498   28.7246 N   0  0  0  0  0  0  0  0  0  0  0  0
  -26.9659   -0.4722   28.7709 C   0  0  0  0  0  0  0  0  0  0  0  0
  -26.4477    0.3414   27.9328 C   0  0  0  0  0  0  0  0  0  0  0  0
  -27.3171    0.7634   26.8203 C   0  0  0  0  0  0  0  0  0  0  0  0
  -28.5568    0.2440   26.8337 C   0  0  0  0  0  0  0  0  0  0  0  0
  -28.9454   -0.4965   28.0357 C   0  0  0  0  0  0  0  0  0  0  0  0
  -29.4671    0.6894   25.8068 C   0  0  0  0  0  0  0  0  0  0  0  0
  -29.0745    1.1920   24.6961 C   0  0  0  0  0  0  0  0  0  0  0  0
  -27.6618    1.7252   24.6248 C   0  0  0  0  0  0  0  0  0  0  0  0
  -26.7843    1.4964   25.7270 C   0  0  0  0  0  0  0  0  0  0  0  0
  -25.9723   -0.9786   29.8071 N   0  0  0  0  0  0  0  0  0  0  0  0
  -24.7048   -0.7206   29.7997 C   0  0  0  0  0  0  0  0  0  0  0  0
  -24.2506    0.2610   28.9090 C   0  0  0  0  0  0  0  0  0  0  0  0
  -25.0044    0.7510   27.8769 C   0  0  0  0  0  0  0  0  0  0  0  0
  5  7  1  0
  7  8  2  0
  8  9  1  0
  9 10  2  0
 10  4  1  0
  1  2  2  0
  3  4  2  0
  4  5  1  0
  5  6  2  0
  6  1  1  0
  2  3  1  0
  3 14  1  0
 14 13  2  0
 13 12  1  0
 12 11  2  0
 11  2  1  0
M  END

$$$$
