No_543-gen_results/8p0m/2024-11-27-11-27-31/
     RDKit          3D

 34 37  0  0  0  0  0  0  0  0999 V2000
  -28.0162   -0.8135   28.8779 C   0  0  0  0  0  0  0  0  0  0  0  0
  -27.0636   -0.1190   28.6079 C   0  0  0  0  0  0  0  0  0  0  0  0
  -26.9287    1.1713   29.0083 C   0  0  0  0  0  0  0  0  0  0  0  0
  -25.7702    2.0341   28.6884 C   0  0  0  0  0  0  0  0  0  0  0  0
  -24.7141    1.4431   27.9188 C   0  0  0  0  0  0  0  0  0  0  0  0
  -24.8590    0.0783   27.5836 C   0  0  0  0  0  0  0  0  0  0  0  0
  -25.9647   -0.6606   27.9164 C   0  0  0  0  0  0  0  0  0  0  0  0
  -27.9821   -1.6367   30.0748 N   0  0  0  0  0  0  0  0  0  0  0  0
  -29.1950   -0.6035   28.4621 O   0  0  0  0  0  0  0  0  0  0  0  0
  -29.0495   -2.5038   30.5225 C   0  0  0  0  0  0  0  0  0  0  0  0
  -26.6889   -1.8860   30.7614 C   0  0  0  0  0  0  0  0  0  0  0  0
  -23.5137    2.1536   27.5449 C   0  0  0  0  0  0  0  0  0  0  0  0
  -22.3564    2.2483   27.8123 N   0  0  0  0  0  0  0  0  0  0  0  0
  -23.8065    2.9561   26.3380 N   0  0  0  0  0  0  0  0  0  0  0  0
  -28.8684   -3.8321   30.2772 C   0  0  0  0  0  0  0  0  0  0  0  0
  -27.4951   -4.4581   30.2006 Cl  0  0  0  0  0  0  0  0  0  0  0  0
  -29.8223   -4.7041   30.6590 O   0  0  0  0  0  0  0  0  0  0  0  0
  -21.6182    2.6161   26.7537 N   0  0  0  0  0  0  0  0  0  0  0  0
  -22.5139    3.0455   25.8714 C   0  0  0  0  0  0  0  0  0  0  0  0
  -30.5871   -5.1199   29.6485 C   0  0  0  0  0  0  0  0  0  0  0  0
  -31.3545   -4.4048   28.8341 C   0  0  0  0  0  0  0  0  0  0  0  0
  -32.0474   -4.9472   27.7891 C   0  0  0  0  0  0  0  0  0  0  0  0
  -31.9573   -6.3513   27.5633 C   0  0  0  0  0  0  0  0  0  0  0  0
  -31.2138   -7.1642   28.4361 C   0  0  0  0  0  0  0  0  0  0  0  0
  -30.5977   -6.5376   29.5096 C   0  0  0  0  0  0  0  0  0  0  0  0
  -32.7446   -6.9947   26.4947 C   0  0  0  0  0  0  0  0  0  0  0  0
  -33.7272   -7.8008   26.8647 C   0  0  0  0  0  0  0  0  0  0  0  0
  -34.4525   -8.4205   25.8931 C   0  0  0  0  0  0  0  0  0  0  0  0
  -34.2268   -8.1637   24.4884 C   0  0  0  0  0  0  0  0  0  0  0  0
  -33.1945   -7.2838   24.1244 C   0  0  0  0  0  0  0  0  0  0  0  0
  -32.4172   -6.6096   25.1295 C   0  0  0  0  0  0  0  0  0  0  0  0
  -32.8134   -4.0687   26.8934 C   0  0  0  0  0  0  0  0  0  0  0  0
  -32.3712   -3.6486   25.9256 O   0  0  0  0  0  0  0  0  0  0  0  0
  -33.9333   -3.6220   27.4450 O   0  0  0  0  0  0  0  0  0  0  0  0
  1  2  1  0
  1  8  1  0
  1  9  2  0
  8 10  1  0
  8 11  1  0
  5 12  1  0
 12 13  2  0
 12 14  1  0
 10 15  1  0
 15 16  1  0
 15 17  1  0
 13 18  1  0
 14 19  1  0
 18 19  2  0
 17 20  1  0
 23 26  1  0
 22 32  1  0
 32 33  2  0
 32 34  1  0
 26 27  2  0
 27 28  1  0
 28 29  2  0
 29 30  1  0
 30 31  2  0
 31 26  1  0
  2  3  2  0
  3  4  1  0
  4  5  2  0
  5  6  1  0
  6  7  2  0
  7  2  1  0
 20 21  2  0
 21 22  1  0
 22 23  2  0
 23 24  1  0
 24 25  2  0
 25 20  1  0
M  END

$$$$
