No_598-gen_results/8p0m/2024-11-27-11-27-31/
     RDKit          3D

 13 13  0  0  0  0  0  0  0  0999 V2000
  -28.0162   -0.8135   28.8779 C   0  0  0  0  0  0  0  0  0  0  0  0
  -28.4690   -0.7850   29.8287 C   0  0  0  0  0  0  0  0  0  0  0  0
  -27.1356    0.2359   28.5352 C   0  0  0  0  0  0  0  0  0  0  0  0
  -26.8745    1.2825   29.3982 C   0  0  0  0  0  0  0  0  0  0  0  0
  -27.5070    1.2380   30.6295 C   0  0  0  0  0  0  0  0  0  0  0  0
  -28.3293    0.1745   30.9350 C   0  0  0  0  0  0  0  0  0  0  0  0
  -26.4077    0.3070   27.2259 C   0  0  0  0  0  0  0  0  0  0  0  0
  -27.0192    0.0345   26.2763 F   0  0  0  0  0  0  0  0  0  0  0  0
  -25.1091    0.4406   27.1878 F   0  0  0  0  0  0  0  0  0  0  0  0
  -28.9764   -0.1096   32.2087 C   0  0  0  0  0  0  0  0  0  0  0  0
  -29.9428    0.5151   32.2800 F   0  0  0  0  0  0  0  0  0  0  0  0
  -29.2019   -1.4151   32.3588 F   0  0  0  0  0  0  0  0  0  0  0  0
  -28.1234    0.2449   33.1934 F   0  0  0  0  0  0  0  0  0  0  0  0
  3  7  1  0
  7  8  1  0
  7  9  1  0
  6 10  1  0
 10 11  1  0
 10 12  1  0
 10 13  1  0
  1  2  2  0
  2  6  1  0
  6  5  2  0
  5  4  1  0
  4  3  2  0
  3  1  1  0
M  END

$$$$
