No_503-gen_results/8p0m/2024-11-27-11-27-31/
     RDKit          3D

 11 11  0  0  0  0  0  0  0  0999 V2000
  -28.1229   -1.3353   28.4874 O   0  0  0  0  0  0  0  0  0  0  0  0
  -27.0637   -0.8242   28.8687 C   0  0  0  0  0  0  0  0  0  0  0  0
  -25.9464   -1.0396   28.8492 C   0  0  0  0  0  0  0  0  0  0  0  0
  -24.7602   -0.1562   29.1644 C   0  0  0  0  0  0  0  0  0  0  0  0
  -23.3890   -0.4551   29.0162 C   0  0  0  0  0  0  0  0  0  0  0  0
  -27.2690    0.5956   29.5360 N   0  0  0  0  0  0  0  0  0  0  0  0
  -28.6234    1.0171   29.6516 C   0  0  0  0  0  0  0  0  0  0  0  0
  -22.4144    0.5369   29.0739 C   0  0  0  0  0  0  0  0  0  0  0  0
  -22.6893    1.5836   28.4373 C   0  0  0  0  0  0  0  0  0  0  0  0
  -24.0434    2.0846   28.2876 C   0  0  0  0  0  0  0  0  0  0  0  0
  -25.0484    1.1159   28.4401 C   0  0  0  0  0  0  0  0  0  0  0  0
  1  2  2  0
  2  3  1  0
  3  4  1  0
  2  6  1  0
  6  7  1  0
  4  5  2  0
  5  8  1  0
  8  9  2  0
  9 10  1  0
 10 11  2  0
 11  4  1  0
M  END

$$$$
