No_5-gen_results/8p0m/2024-11-27-11-27-31/
     RDKit          3D

 18 20  0  0  0  0  0  0  0  0999 V2000
  -28.0162   -0.8135   28.8779 C   0  0  0  0  0  0  0  0  0  0  0  0
  -27.0636   -0.1189   28.6079 C   0  0  0  0  0  0  0  0  0  0  0  0
  -27.0010    0.6913   27.4910 C   0  0  0  0  0  0  0  0  0  0  0  0
  -25.8548    1.4825   27.0830 C   0  0  0  0  0  0  0  0  0  0  0  0
  -25.8227    2.3296   25.9941 C   0  0  0  0  0  0  0  0  0  0  0  0
  -29.2749   -0.4841   28.3563 C   0  0  0  0  0  0  0  0  0  0  0  0
  -29.3535    0.3686   27.3239 C   0  0  0  0  0  0  0  0  0  0  0  0
  -28.2055    1.0839   26.8491 C   0  0  0  0  0  0  0  0  0  0  0  0
  -24.5577    1.1970   27.7447 C   0  0  0  0  0  0  0  0  0  0  0  0
  -23.4078    1.8847   27.2660 C   0  0  0  0  0  0  0  0  0  0  0  0
  -22.2020    1.6542   27.9309 C   0  0  0  0  0  0  0  0  0  0  0  0
  -22.0853    0.7124   28.9599 C   0  0  0  0  0  0  0  0  0  0  0  0
  -23.2063   -0.1073   29.3079 C   0  0  0  0  0  0  0  0  0  0  0  0
  -24.4378    0.1865   28.6886 C   0  0  0  0  0  0  0  0  0  0  0  0
  -25.6276   -0.4790   29.2021 C   0  0  0  0  0  0  0  0  0  0  0  0
  -25.5755   -1.3090   30.1544 O   0  0  0  0  0  0  0  0  0  0  0  0
  -30.9971    0.7452   26.5044 Br  0  0  0  0  0  0  0  0  0  0  0  0
  -30.3575   -1.1618   28.7225 F   0  0  0  0  0  0  0  0  0  0  0  0
  3  4  1  0
  4  9  1  0
  2 15  1  0
 14 15  1  0
 15 16  2  0
  7 17  1  0
  6 18  1  0
  5  4  1  0
  9 10  2  0
 10 11  1  0
 11 12  2  0
 12 13  1  0
 13 14  2  0
 14  9  1  0
  1  2  2  0
  2  3  1  0
  3  8  2  0
  8  7  1  0
  7  6  2  0
  6  1  1  0
M  END

$$$$
