No_524-gen_results/8p0m/2024-11-27-11-27-31/
     RDKit          3D

 13 13  0  0  0  0  0  0  0  0999 V2000
  -28.0162   -0.8135   28.8779 C   0  0  0  0  0  0  0  0  0  0  0  0
  -28.4690   -0.7850   29.8287 C   0  0  0  0  0  0  0  0  0  0  0  0
  -26.5455   -0.8762   28.8500 C   0  0  0  0  0  0  0  0  0  0  0  0
  -25.8041   -1.0324   30.0571 C   0  0  0  0  0  0  0  0  0  0  0  0
  -27.9437   -0.9869   31.2075 C   0  0  0  0  0  0  0  0  0  0  0  0
  -26.5825   -1.0386   31.2231 C   0  0  0  0  0  0  0  0  0  0  0  0
  -30.0606   -0.7371   29.9024 C   0  0  0  0  0  0  0  0  0  0  0  0
  -30.6052    0.0855   30.7066 O   0  0  0  0  0  0  0  0  0  0  0  0
  -30.6284   -1.1532   28.8275 O   0  0  0  0  0  0  0  0  0  0  0  0
  -24.3699   -1.0981   30.0806 C   0  0  0  0  0  0  0  0  0  0  0  0
  -23.9346   -2.0234   30.6805 F   0  0  0  0  0  0  0  0  0  0  0  0
  -23.8175   -1.0974   28.7996 F   0  0  0  0  0  0  0  0  0  0  0  0
  -23.8616    0.0350   30.6849 F   0  0  0  0  0  0  0  0  0  0  0  0
  2  7  1  0
  7  8  2  0
  7  9  1  0
  4 10  1  0
 10 11  1  0
 10 12  1  0
 10 13  1  0
  1  2  2  0
  2  5  1  0
  5  6  2  0
  6  4  1  0
  4  3  2  0
  3  1  1  0
M  END

$$$$
