No_575-gen_results/8p0m/2024-11-27-11-27-31/
     RDKit          3D

 32 35  0  0  0  0  0  0  0  0999 V2000
  -28.0162   -0.8135   28.8779 C   0  0  0  0  0  0  0  0  0  0  0  0
  -28.4690   -0.7850   29.8287 C   0  0  0  0  0  0  0  0  0  0  0  0
  -26.5455   -0.8762   28.8500 C   0  0  0  0  0  0  0  0  0  0  0  0
  -25.8041   -1.0324   30.0571 C   0  0  0  0  0  0  0  0  0  0  0  0
  -27.9437   -0.9869   31.2075 C   0  0  0  0  0  0  0  0  0  0  0  0
  -26.5825   -1.0386   31.2231 C   0  0  0  0  0  0  0  0  0  0  0  0
  -24.3810   -1.1082   30.0855 C   0  0  0  0  0  0  0  0  0  0  0  0
  -23.7055    0.0955   29.8440 C   0  0  0  0  0  0  0  0  0  0  0  0
  -22.4285    0.1160   29.2171 C   0  0  0  0  0  0  0  0  0  0  0  0
  -21.8149    1.2942   28.8765 C   0  0  0  0  0  0  0  0  0  0  0  0
  -24.1974    1.3766   30.2708 C   0  0  0  0  0  0  0  0  0  0  0  0
  -23.6703    2.5777   29.8431 C   0  0  0  0  0  0  0  0  0  0  0  0
  -22.4202    2.5641   29.1385 C   0  0  0  0  0  0  0  0  0  0  0  0
  -30.0901   -0.7039   29.8678 C   0  0  0  0  0  0  0  0  0  0  0  0
  -30.6210    0.2508   30.4983 O   0  0  0  0  0  0  0  0  0  0  0  0
  -30.7114   -1.5282   29.2165 O   0  0  0  0  0  0  0  0  0  0  0  0
  -25.6672   -0.8577   27.7509 O   0  0  0  0  0  0  0  0  0  0  0  0
  -25.9716    0.0709   26.7908 C   0  0  0  0  0  0  0  0  0  0  0  0
  -25.0659    0.1194   25.6993 C   0  0  0  0  0  0  0  0  0  0  0  0
  -26.8744    1.1137   26.8537 C   0  0  0  0  0  0  0  0  0  0  0  0
  -27.0259    2.0519   25.9247 C   0  0  0  0  0  0  0  0  0  0  0  0
  -26.1556    2.0384   24.8443 C   0  0  0  0  0  0  0  0  0  0  0  0
  -25.1904    1.0587   24.7249 C   0  0  0  0  0  0  0  0  0  0  0  0
  -28.2526    3.2544   26.1239 Cl  0  0  0  0  0  0  0  0  0  0  0  0
  -23.8269   -2.1677   30.3191 O   0  0  0  0  0  0  0  0  0  0  0  0
  -20.5464    1.2602   28.0962 C   0  0  0  0  0  0  0  0  0  0  0  0
  -28.7895   -1.0459   32.4132 C   0  0  0  0  0  0  0  0  0  0  0  0
  -28.2379   -0.2783   33.4470 C   0  0  0  0  0  0  0  0  0  0  0  0
  -28.8258   -0.5544   34.6525 C   0  0  0  0  0  0  0  0  0  0  0  0
  -29.9057   -1.4094   34.7796 C   0  0  0  0  0  0  0  0  0  0  0  0
  -30.3581   -2.1473   33.7184 C   0  0  0  0  0  0  0  0  0  0  0  0
  -29.6982   -2.0184   32.5158 C   0  0  0  0  0  0  0  0  0  0  0  0
  4  7  1  0
  7  8  1  0
  2 14  1  0
 14 15  2  0
 14 16  1  0
  3 17  1  0
 17 18  1  0
 21 24  1  0
  7 25  2  0
 10 26  1  0
  5 27  1  0
  8  9  2  0
  9 10  1  0
 10 13  2  0
 13 12  1  0
 12 11  2  0
 11  8  1  0
 18 19  2  0
 19 23  1  0
 23 22  2  0
 22 21  1  0
 21 20  2  0
 20 18  1  0
  1  2  2  0
  2  5  1  0
  5  6  2  0
  6  4  1  0
  4  3  2  0
  3  1  1  0
 27 28  2  0
 28 29  1  0
 29 30  2  0
 30 31  1  0
 31 32  2  0
 32 27  1  0
M  END

$$$$
