No_551-gen_results/8p0m/2024-11-27-11-27-31/
     RDKit          3D

 20 22  0  0  0  0  0  0  0  0999 V2000
  -28.1229   -1.3353   28.4874 O   0  0  0  0  0  0  0  0  0  0  0  0
  -27.4806   -0.4044   28.7094 C   0  0  0  0  0  0  0  0  0  0  0  0
  -26.4599   -0.1104   28.0051 N   0  0  0  0  0  0  0  0  0  0  0  0
  -26.1475   -0.4948   26.8760 C   0  0  0  0  0  0  0  0  0  0  0  0
  -27.6421    0.4982   29.9779 C   0  0  0  0  0  0  0  0  0  0  0  0
  -27.2261    1.5801   30.0900 C   0  0  0  0  0  0  0  0  0  0  0  0
  -25.9958    1.8876   29.2202 C   0  0  0  0  0  0  0  0  0  0  0  0
  -25.6633    1.2063   28.1379 C   0  0  0  0  0  0  0  0  0  0  0  0
  -24.6620    1.5401   27.3001 C   0  0  0  0  0  0  0  0  0  0  0  0
  -24.3033    1.0665   26.1370 C   0  0  0  0  0  0  0  0  0  0  0  0
  -25.0723   -0.1254   25.8623 C   0  0  0  0  0  0  0  0  0  0  0  0
  -25.2432    3.1740   29.4729 C   0  0  0  0  0  0  0  0  0  0  0  0
  -25.7721    4.1005   29.3755 O   0  0  0  0  0  0  0  0  0  0  0  0
  -23.8984    2.9868   29.6862 O   0  0  0  0  0  0  0  0  0  0  0  0
  -28.7959    0.0031   30.8480 C   0  0  0  0  0  0  0  0  0  0  0  0
  -28.9506    0.5967   31.7730 C   0  0  0  0  0  0  0  0  0  0  0  0
  -29.9007    0.1624   32.8634 C   0  0  0  0  0  0  0  0  0  0  0  0
  -30.5788   -1.0420   32.5654 C   0  0  0  0  0  0  0  0  0  0  0  0
  -30.3071   -1.7688   31.4232 C   0  0  0  0  0  0  0  0  0  0  0  0
  -29.3396   -1.2978   30.5840 C   0  0  0  0  0  0  0  0  0  0  0  0
  1  2  2  0
  2  3  1  0
  3  4  1  0
  2  5  1  0
  6  7  1  0
  3  8  1  0
  8  9  1  0
  4 11  1  0
 10 11  1  0
  7 12  1  0
 12 13  2  0
 12 14  1  0
  5 15  1  0
  5  6  1  0
  7  8  1  0
 10  9  1  0
 15 16  2  0
 16 17  1  0
 17 18  2  0
 18 19  1  0
 19 20  2  0
 20 15  1  0
M  END

$$$$
