No_538-gen_results/8p0m/2024-11-27-11-27-31/
     RDKit          3D

 12 13  0  0  0  0  0  0  0  0999 V2000
  -28.1229   -1.3353   28.4874 O   0  0  0  0  0  0  0  0  0  0  0  0
  -27.4806   -0.4044   28.7094 C   0  0  0  0  0  0  0  0  0  0  0  0
  -26.3804   -0.0867   27.9394 C   0  0  0  0  0  0  0  0  0  0  0  0
  -27.4232    0.1749   30.0549 N   0  0  0  0  0  0  0  0  0  0  0  0
  -25.8482    1.0048   27.9942 C   0  0  0  0  0  0  0  0  0  0  0  0
  -25.8111    1.7414   29.2835 C   0  0  0  0  0  0  0  0  0  0  0  0
  -26.7479    1.3152   30.2318 C   0  0  0  0  0  0  0  0  0  0  0  0
  -24.7790    1.5405   27.0578 C   0  0  0  0  0  0  0  0  0  0  0  0
  -23.9987    2.5146   27.2088 C   0  0  0  0  0  0  0  0  0  0  0  0
  -24.1863    3.2560   28.4785 C   0  0  0  0  0  0  0  0  0  0  0  0
  -25.0011    2.9016   29.4327 C   0  0  0  0  0  0  0  0  0  0  0  0
  -25.0526    3.5825   30.5809 O   0  0  0  0  0  0  0  0  0  0  0  0
  1  2  2  0
  2  3  1  0
  2  4  1  0
  3  5  1  0
  6  7  1  0
  5  8  1  0
  9 10  1  0
  6 11  1  0
 10 11  1  0
 11 12  2  0
  5  6  1  0
  7  4  1  0
  8  9  1  0
M  END

$$$$
