No_57-gen_results/8p0m/2024-11-27-11-27-31/
     RDKit          3D

 21 23  0  0  0  0  0  0  0  0999 V2000
  -28.0162   -0.8135   28.8779 C   0  0  0  0  0  0  0  0  0  0  0  0
  -28.4690   -0.7850   29.8287 C   0  0  0  0  0  0  0  0  0  0  0  0
  -26.5042   -0.7777   28.8766 C   0  0  0  0  0  0  0  0  0  0  0  0
  -25.8103   -0.8531   30.1028 C   0  0  0  0  0  0  0  0  0  0  0  0
  -27.9906   -0.8916   31.2257 C   0  0  0  0  0  0  0  0  0  0  0  0
  -26.6042   -0.8676   31.2652 C   0  0  0  0  0  0  0  0  0  0  0  0
  -24.4452   -0.9530   30.3506 C   0  0  0  0  0  0  0  0  0  0  0  0
  -23.7824   -0.8008   31.1345 C   0  0  0  0  0  0  0  0  0  0  0  0
  -22.3166   -0.8112   31.2683 C   0  0  0  0  0  0  0  0  0  0  0  0
  -21.7292   -0.9060   30.0529 C   0  0  0  0  0  0  0  0  0  0  0  0
  -23.6090   -1.0789   29.0385 C   0  0  0  0  0  0  0  0  0  0  0  0
  -22.3835   -1.0654   28.9079 C   0  0  0  0  0  0  0  0  0  0  0  0
  -30.0897   -0.7284   29.8180 C   0  0  0  0  0  0  0  0  0  0  0  0
  -30.6773    0.1850   30.4775 O   0  0  0  0  0  0  0  0  0  0  0  0
  -30.6730   -1.5157   29.0875 O   0  0  0  0  0  0  0  0  0  0  0  0
  -31.6894    0.7652   30.1465 C   0  0  0  0  0  0  0  0  0  0  0  0
  -32.2681    1.9141   30.7708 C   0  0  0  0  0  0  0  0  0  0  0  0
  -33.3944    2.4398   30.4001 C   0  0  0  0  0  0  0  0  0  0  0  0
  -34.0914    1.8595   29.3051 C   0  0  0  0  0  0  0  0  0  0  0  0
  -32.5168    0.2698   29.0660 C   0  0  0  0  0  0  0  0  0  0  0  0
  -33.6384    0.8578   28.7231 N   0  0  0  0  0  0  0  0  0  0  0  0
  4  7  1  0
  2 13  1  0
 13 14  1  0
 13 15  2  0
 14 16  1  0
  7  8  2  0
  8  9  1  0
  9 10  2  0
 10 12  1  0
 12 11  2  0
 11  7  1  0
  1  2  2  0
  2  5  1  0
  5  6  2  0
  6  4  1  0
  4  3  2  0
  3  1  1  0
 16 17  2  0
 17 18  1  0
 18 19  2  0
 19 21  1  0
 21 20  2  0
 20 16  1  0
M  END

$$$$
