No_528-gen_results/8p0m/2024-11-27-11-27-31/
     RDKit          3D

 27 28  0  0  0  0  0  0  0  0999 V2000
  -28.0162   -0.8135   28.8779 C   0  0  0  0  0  0  0  0  0  0  0  0
  -27.0636   -0.1189   28.6079 C   0  0  0  0  0  0  0  0  0  0  0  0
  -26.8756    1.1325   28.9134 C   0  0  0  0  0  0  0  0  0  0  0  0
  -25.6883    1.9515   28.5672 C   0  0  0  0  0  0  0  0  0  0  0  0
  -24.6394    1.2834   27.8753 C   0  0  0  0  0  0  0  0  0  0  0  0
  -23.4556    1.9996   27.5653 C   0  0  0  0  0  0  0  0  0  0  0  0
  -25.8432   -0.7373   27.9210 C   0  0  0  0  0  0  0  0  0  0  0  0
  -24.6903   -0.0521   27.5832 C   0  0  0  0  0  0  0  0  0  0  0  0
  -22.4331    1.7264   27.3544 O   0  0  0  0  0  0  0  0  0  0  0  0
  -23.7312    3.3814   27.3379 O   0  0  0  0  0  0  0  0  0  0  0  0
  -28.5459   -0.5531   30.2768 C   0  0  0  0  0  0  0  0  0  0  0  0
  -28.8370    0.7768   30.3746 F   0  0  0  0  0  0  0  0  0  0  0  0
  -27.6341   -0.8755   31.2311 F   0  0  0  0  0  0  0  0  0  0  0  0
  -29.6115   -1.3638   30.5496 F   0  0  0  0  0  0  0  0  0  0  0  0
  -25.6343    3.3552   28.9563 C   0  0  0  0  0  0  0  0  0  0  0  0
  -26.5420    3.8593   30.0395 C   0  0  0  0  0  0  0  0  0  0  0  0
  -26.8076    3.2150   30.8953 O   0  0  0  0  0  0  0  0  0  0  0  0
  -26.9185    5.0999   29.8959 N   0  0  0  0  0  0  0  0  0  0  0  0
  -27.8126    5.7374   30.8565 C   0  0  0  0  0  0  0  0  0  0  0  0
  -26.5524    5.9219   28.7634 C   0  0  0  0  0  0  0  0  0  0  0  0
  -28.7820    6.1969   30.4541 C   0  0  0  0  0  0  0  0  0  0  0  0
  -28.6648    7.3088   29.4680 C   0  0  0  0  0  0  0  0  0  0  0  0
  -27.7115    6.7982   28.3964 N   0  0  0  0  0  0  0  0  0  0  0  0
  -29.8165    5.1988   29.8523 C   0  0  0  0  0  0  0  0  0  0  0  0
  -31.1767    5.5601   30.0501 C   0  0  0  0  0  0  0  0  0  0  0  0
  -31.6932    6.1128   30.7599 C   0  0  0  0  0  0  0  0  0  0  0  0
  -33.0802    6.1304   30.9730 C   0  0  0  0  0  0  0  0  0  0  0  0
  1  2  2  3
  2  3  1  0
  3  4  1  0
  4  5  1  0
  5  6  1  0
  2  7  1  0
  5  8  1  0
  7  8  1  0
  6  9  2  0
  6 10  1  0
  1 11  1  0
 11 12  1  0
 11 13  1  0
 11 14  1  0
  4 15  1  0
 15 16  1  0
 16 17  2  0
 16 18  1  0
 18 19  1  0
 18 20  1  0
 21 22  1  0
 20 23  1  0
 22 23  1  0
 21 24  1  0
 24 25  1  0
 25 26  2  3
 26 27  1  0
 19 21  1  0
M  END

$$$$
