No_517-gen_results/8p0m/2024-11-27-11-27-31/
     RDKit          3D

 35 38  0  0  0  0  0  0  0  0999 V2000
  -28.0162   -0.8135   28.8779 C   0  0  0  0  0  0  0  0  0  0  0  0
  -28.4690   -0.7850   29.8287 C   0  0  0  0  0  0  0  0  0  0  0  0
  -27.0871    0.2903   28.6377 C   0  0  0  0  0  0  0  0  0  0  0  0
  -26.8317    1.2487   29.5869 C   0  0  0  0  0  0  0  0  0  0  0  0
  -28.3914    0.0801   31.0065 C   0  0  0  0  0  0  0  0  0  0  0  0
  -27.4940    1.1521   30.7841 C   0  0  0  0  0  0  0  0  0  0  0  0
  -26.3172    0.3994   27.3653 C   0  0  0  0  0  0  0  0  0  0  0  0
  -25.4794    1.4098   27.2651 N   0  0  0  0  0  0  0  0  0  0  0  0
  -24.3751    1.4394   27.3569 C   0  0  0  0  0  0  0  0  0  0  0  0
  -23.5010    0.5344   28.0436 C   0  0  0  0  0  0  0  0  0  0  0  0
  -22.1326    0.7609   28.2649 C   0  0  0  0  0  0  0  0  0  0  0  0
  -23.4824    2.6517   26.9080 C   0  0  0  0  0  0  0  0  0  0  0  0
  -24.2604    3.6913   26.1737 C   0  0  0  0  0  0  0  0  0  0  0  0
  -21.4666    1.7921   27.7211 C   0  0  0  0  0  0  0  0  0  0  0  0
  -22.1156    2.7156   27.1061 C   0  0  0  0  0  0  0  0  0  0  0  0
  -25.9520    2.3628   26.0547 C   0  0  0  0  0  0  0  0  0  0  0  0
  -25.4713    3.5594   26.0024 N   0  0  0  0  0  0  0  0  0  0  0  0
  -26.4024   -0.4244   26.5105 O   0  0  0  0  0  0  0  0  0  0  0  0
  -21.4125   -0.4004   29.0123 C   0  0  0  0  0  0  0  0  0  0  0  0
  -20.3192   -0.2147   29.2170 O   0  0  0  0  0  0  0  0  0  0  0  0
  -22.1943   -1.2154   29.6702 O   0  0  0  0  0  0  0  0  0  0  0  0
  -29.4394   -1.9129   30.1765 N   0  0  0  0  0  0  0  0  0  0  0  0
  -29.0167   -3.1922   30.3906 C   0  0  0  0  0  0  0  0  0  0  0  0
  -29.9429   -4.1675   30.5185 N   0  0  0  0  0  0  0  0  0  0  0  0
  -27.7959   -3.5250   30.3711 O   0  0  0  0  0  0  0  0  0  0  0  0
  -29.6340   -5.5825   30.5960 C   0  0  0  0  0  0  0  0  0  0  0  0
  -30.8526   -6.3709   30.3122 C   0  0  0  0  0  0  0  0  0  0  0  0
  -31.3817   -6.3679   29.0737 C   0  0  0  0  0  0  0  0  0  0  0  0
  -31.0551   -5.2854   28.2504 C   0  0  0  0  0  0  0  0  0  0  0  0
  -30.9792   -4.0244   29.1140 C   0  0  0  0  0  0  0  0  0  0  0  0
  -31.9261   -4.9511   27.2170 O   0  0  0  0  0  0  0  0  0  0  0  0
  -27.2710    2.1909   31.8564 C   0  0  0  0  0  0  0  0  0  0  0  0
  -26.4147    2.8913   31.8914 C   0  0  0  0  0  0  0  0  0  0  0  0
  -26.1401    3.9793   32.9200 C   0  0  0  0  0  0  0  0  0  0  0  0
  -26.9420    3.9904   34.0091 C   0  0  0  0  0  0  0  0  0  0  0  0
  3  7  1  0
  7  8  1  0
  8  9  1  0
 12 13  1  0
  8 16  1  0
 13 17  1  0
 16 17  1  0
  7 18  2  0
 11 19  1  0
 19 20  2  0
 19 21  1  0
  2 22  1  0
 22 23  1  0
 23 24  1  0
 23 25  2  0
 24 26  1  0
 26 27  1  0
 27 28  1  0
 28 29  1  0
 24 30  1  0
 29 30  1  0
 29 31  1  0
  6 32  1  0
 32 33  2  3
 33 34  1  0
 34 35  2  0
  9 10  2  0
 10 11  1  0
 11 14  2  0
 14 15  1  0
 15 12  2  0
 12  9  1  0
  1  2  2  0
  2  5  1  0
  5  6  2  0
  6  4  1  0
  4  3  2  0
  3  1  1  0
M  END

$$$$
