No_540-gen_results/8p0m/2024-11-27-11-27-31/
     RDKit          3D

 33 36  0  0  0  0  0  0  0  0999 V2000
  -28.0162   -0.8135   28.8779 C   0  0  0  0  0  0  0  0  0  0  0  0
  -28.4690   -0.7850   29.8287 C   0  0  0  0  0  0  0  0  0  0  0  0
  -26.5455   -0.8762   28.8500 C   0  0  0  0  0  0  0  0  0  0  0  0
  -25.8041   -1.0324   30.0571 C   0  0  0  0  0  0  0  0  0  0  0  0
  -27.9437   -0.9869   31.2075 C   0  0  0  0  0  0  0  0  0  0  0  0
  -26.5825   -1.0386   31.2231 C   0  0  0  0  0  0  0  0  0  0  0  0
  -30.0606   -0.7371   29.9024 C   0  0  0  0  0  0  0  0  0  0  0  0
  -30.7252   -1.5544   30.2697 O   0  0  0  0  0  0  0  0  0  0  0  0
  -30.5245    0.5663   29.6971 N   0  0  0  0  0  0  0  0  0  0  0  0
  -31.9302    0.7637   29.6237 C   0  0  0  0  0  0  0  0  0  0  0  0
  -29.6836    1.6912   29.3393 C   0  0  0  0  0  0  0  0  0  0  0  0
  -29.5346    2.2109   28.2745 C   0  0  0  0  0  0  0  0  0  0  0  0
  -28.5885    3.2634   28.0151 C   0  0  0  0  0  0  0  0  0  0  0  0
  -27.7116    3.6357   29.0821 C   0  0  0  0  0  0  0  0  0  0  0  0
  -28.6930    2.0382   30.3943 C   0  0  0  0  0  0  0  0  0  0  0  0
  -27.8276    3.0532   30.2660 C   0  0  0  0  0  0  0  0  0  0  0  0
  -25.5684   -0.7816   27.7127 C   0  0  0  0  0  0  0  0  0  0  0  0
  -24.3226   -0.4125   27.8879 C   0  0  0  0  0  0  0  0  0  0  0  0
  -23.6606   -0.6758   29.1295 C   0  0  0  0  0  0  0  0  0  0  0  0
  -24.3983   -0.8811   30.1954 C   0  0  0  0  0  0  0  0  0  0  0  0
  -22.1762   -0.5806   29.2078 C   0  0  0  0  0  0  0  0  0  0  0  0
  -21.1720   -0.0659   28.9339 N   0  0  0  0  0  0  0  0  0  0  0  0
  -26.7277    3.4719   31.1706 C   0  0  0  0  0  0  0  0  0  0  0  0
  -25.8169    4.0344   30.9149 O   0  0  0  0  0  0  0  0  0  0  0  0
  -27.1253    3.2933   32.4917 O   0  0  0  0  0  0  0  0  0  0  0  0
  -32.5811    1.2098   30.6989 C   0  0  0  0  0  0  0  0  0  0  0  0
  -33.8691    1.5383   30.7357 C   0  0  0  0  0  0  0  0  0  0  0  0
  -32.5876    0.4786   28.4552 C   0  0  0  0  0  0  0  0  0  0  0  0
  -33.9519    0.7270   28.3921 C   0  0  0  0  0  0  0  0  0  0  0  0
  -34.6000    1.2443   29.5385 C   0  0  0  0  0  0  0  0  0  0  0  0
  -36.0737    1.4907   29.4496 C   0  0  0  0  0  0  0  0  0  0  0  0
  -36.7201    2.1543   30.1784 O   0  0  0  0  0  0  0  0  0  0  0  0
  -36.6587    0.8466   28.4448 O   0  0  0  0  0  0  0  0  0  0  0  0
  2  7  1  0
  7  8  2  0
  7  9  1  0
  9 10  1  0
  9 11  1  0
 19 21  1  0
 21 22  3  0
 16 23  1  0
 23 24  2  0
 23 25  1  0
 30 31  1  0
 31 32  2  0
 31 33  1  0
 10 26  2  0
 26 27  1  0
 27 30  2  0
 30 29  1  0
 29 28  2  0
 28 10  1  0
 11 12  2  0
 12 13  1  0
 13 14  2  0
 14 16  1  0
 16 15  2  0
 15 11  1  0
  1  2  2  0
  2  5  1  0
  5  6  2  0
  6  4  1  0
  3  1  1  0
  3  4  2  0
  4 20  1  0
 20 19  2  0
 19 18  1  0
 18 17  2  0
 17  3  1  0
M  END

$$$$
