No_527-gen_results/8p0m/2024-11-27-11-27-31/
     RDKit          3D

 20 20  0  0  0  0  0  0  0  0999 V2000
  -28.0162   -0.8135   28.8779 C   0  0  0  0  0  0  0  0  0  0  0  0
  -27.0636   -0.1189   28.6079 C   0  0  0  0  0  0  0  0  0  0  0  0
  -26.8756    1.1325   28.9134 C   0  0  0  0  0  0  0  0  0  0  0  0
  -25.6883    1.9515   28.5672 C   0  0  0  0  0  0  0  0  0  0  0  0
  -24.6394    1.2834   27.8753 C   0  0  0  0  0  0  0  0  0  0  0  0
  -24.8068   -0.0513   27.6040 C   0  0  0  0  0  0  0  0  0  0  0  0
  -25.9019   -0.7670   27.9511 C   0  0  0  0  0  0  0  0  0  0  0  0
  -27.9893   -1.5850   30.1056 N   0  0  0  0  0  0  0  0  0  0  0  0
  -23.4455    1.9844   27.4704 C   0  0  0  0  0  0  0  0  0  0  0  0
  -23.4497    2.4973   26.3940 F   0  0  0  0  0  0  0  0  0  0  0  0
  -22.2950    1.0954   27.4976 F   0  0  0  0  0  0  0  0  0  0  0  0
  -23.0408    2.9133   28.4516 F   0  0  0  0  0  0  0  0  0  0  0  0
  -26.9274   -2.0643   30.4961 C   0  0  0  0  0  0  0  0  0  0  0  0
  -29.2068   -1.9178   30.8084 C   0  0  0  0  0  0  0  0  0  0  0  0
  -29.7546   -1.0592   31.3953 C   0  0  0  0  0  0  0  0  0  0  0  0
  -29.3605    0.0337   31.5879 C   0  0  0  0  0  0  0  0  0  0  0  0
  -29.5031    1.0958   32.0869 C   0  0  0  0  0  0  0  0  0  0  0  0
  -28.7810    2.3485   32.1995 C   0  0  0  0  0  0  0  0  0  0  0  0
  -27.4500    2.2069   31.9502 C   0  0  0  0  0  0  0  0  0  0  0  0
  -26.9256    0.9565   31.6112 C   0  0  0  0  0  0  0  0  0  0  0  0
  1  2  2  3
  2  3  1  0
  3  4  1  0
  4  5  1  0
  5  6  1  0
  2  7  1  0
  6  7  1  0
  1  8  1  0
  5  9  1  0
  9 10  1  0
  9 11  1  0
  9 12  1  0
  8 13  1  0
  8 14  1  0
 14 15  2  3
 15 16  1  0
 16 17  2  3
 17 18  1  0
 18 19  2  3
 19 20  1  0
M  END

$$$$
