No_584-gen_results/8p0m/2024-11-27-11-27-31/
     RDKit          3D

 26 28  0  0  0  0  0  0  0  0999 V2000
  -28.0162   -0.8135   28.8779 C   0  0  0  0  0  0  0  0  0  0  0  0
  -28.4690   -0.7850   29.8287 C   0  0  0  0  0  0  0  0  0  0  0  0
  -27.0871    0.2903   28.6377 C   0  0  0  0  0  0  0  0  0  0  0  0
  -26.8317    1.2487   29.5869 C   0  0  0  0  0  0  0  0  0  0  0  0
  -28.3914    0.0801   31.0065 C   0  0  0  0  0  0  0  0  0  0  0  0
  -27.4940    1.1521   30.7841 C   0  0  0  0  0  0  0  0  0  0  0  0
  -26.3172    0.3994   27.3653 C   0  0  0  0  0  0  0  0  0  0  0  0
  -24.9405    0.2550   27.5028 C   0  0  0  0  0  0  0  0  0  0  0  0
  -24.1902    0.7222   26.3382 C   0  0  0  0  0  0  0  0  0  0  0  0
  -24.8314    0.9851   25.1585 C   0  0  0  0  0  0  0  0  0  0  0  0
  -26.7662    0.7816   26.1360 C   0  0  0  0  0  0  0  0  0  0  0  0
  -26.1328    1.0242   25.0839 C   0  0  0  0  0  0  0  0  0  0  0  0
  -28.3205    0.7954   25.9953 C   0  0  0  0  0  0  0  0  0  0  0  0
  -28.9530    0.1824   25.2129 O   0  0  0  0  0  0  0  0  0  0  0  0
  -29.0324    1.7097   26.8577 N   0  0  0  0  0  0  0  0  0  0  0  0
  -30.4641    1.7936   26.8001 C   0  0  0  0  0  0  0  0  0  0  0  0
  -30.9279    2.3472   27.8988 C   0  0  0  0  0  0  0  0  0  0  0  0
  -32.3387    2.3594   28.1626 C   0  0  0  0  0  0  0  0  0  0  0  0
  -33.1652    1.8015   27.1452 C   0  0  0  0  0  0  0  0  0  0  0  0
  -32.5722    1.2135   26.0528 C   0  0  0  0  0  0  0  0  0  0  0  0
  -31.2118    1.1644   25.9155 C   0  0  0  0  0  0  0  0  0  0  0  0
  -29.7006   -2.0969   30.2199 Cl  0  0  0  0  0  0  0  0  0  0  0  0
  -24.1408   -0.0268   28.6712 C   0  0  0  0  0  0  0  0  0  0  0  0
  -24.0984   -1.3668   29.1113 C   0  0  0  0  0  0  0  0  0  0  0  0
  -23.3829    0.9612   29.3354 C   0  0  0  0  0  0  0  0  0  0  0  0
  -23.1643    2.0494   28.9234 O   0  0  0  0  0  0  0  0  0  0  0  0
  3  7  1  0
 11 13  1  0
 13 14  2  0
 13 15  1  0
 15 16  1  0
  2 22  1  0
  8 23  1  0
 23 24  1  0
 23 25  1  0
 25 26  2  0
  7  8  2  0
  8  9  1  0
  9 10  2  0
 10 12  1  0
 12 11  2  0
 11  7  1  0
  1  2  2  0
  2  5  1  0
  5  6  2  0
  6  4  1  0
  4  3  2  0
  3  1  1  0
 16 17  2  0
 17 18  1  0
 18 19  2  0
 19 20  1  0
 20 21  2  0
 21 16  1  0
M  END

$$$$
