No_51-gen_results/8p0m/2024-11-27-11-27-31/
     RDKit          3D

 13 14  0  0  0  0  0  0  0  0999 V2000
  -28.0162   -0.8135   28.8779 C   0  0  0  0  0  0  0  0  0  0  0  0
  -27.0636   -0.1189   28.6079 C   0  0  0  0  0  0  0  0  0  0  0  0
  -25.7923   -0.4302   29.0761 C   0  0  0  0  0  0  0  0  0  0  0  0
  -24.5456    0.3494   28.8225 C   0  0  0  0  0  0  0  0  0  0  0  0
  -23.2409    0.0217   29.3323 C   0  0  0  0  0  0  0  0  0  0  0  0
  -27.8820   -1.8995   29.8633 C   0  0  0  0  0  0  0  0  0  0  0  0
  -29.0594   -2.7069   30.2019 C   0  0  0  0  0  0  0  0  0  0  0  0
  -23.1996   -1.2729   29.9284 C   0  0  0  0  0  0  0  0  0  0  0  0
  -24.2878   -2.0783   30.1325 C   0  0  0  0  0  0  0  0  0  0  0  0
  -25.5397   -1.7036   29.7198 C   0  0  0  0  0  0  0  0  0  0  0  0
  -26.6735   -2.3769   30.2133 C   0  0  0  0  0  0  0  0  0  0  0  0
  -29.2418   -2.8542   31.4780 O   0  0  0  0  0  0  0  0  0  0  0  0
  -29.7507   -3.3355   29.4143 O   0  0  0  0  0  0  0  0  0  0  0  0
  6  7  1  0
  7 12  2  0
  7 13  1  0
  1  2  2  0
  2  3  1  0
 10 11  1  0
 11  6  2  0
  6  1  1  0
  3  4  2  0
  4  5  1  0
  5  8  2  0
  8  9  1  0
  9 10  2  0
 10  3  1  0
M  END

$$$$
