No_519-gen_results/8p0m/2024-11-27-11-27-31/
     RDKit          3D

 31 33  0  0  0  0  0  0  0  0999 V2000
  -28.0162   -0.8135   28.8779 C   0  0  0  0  0  0  0  0  0  0  0  0
  -27.0636   -0.1189   28.6079 C   0  0  0  0  0  0  0  0  0  0  0  0
  -26.9287    1.1713   29.0083 C   0  0  0  0  0  0  0  0  0  0  0  0
  -25.7702    2.0341   28.6884 C   0  0  0  0  0  0  0  0  0  0  0  0
  -24.7141    1.4431   27.9188 C   0  0  0  0  0  0  0  0  0  0  0  0
  -24.8590    0.0783   27.5836 C   0  0  0  0  0  0  0  0  0  0  0  0
  -25.9647   -0.6606   27.9164 C   0  0  0  0  0  0  0  0  0  0  0  0
  -29.1701   -0.2984   28.9471 N   0  0  0  0  0  0  0  0  0  0  0  0
  -30.1841   -0.8920   29.7048 C   0  0  0  0  0  0  0  0  0  0  0  0
  -23.5181    2.1584   27.5785 C   0  0  0  0  0  0  0  0  0  0  0  0
  -22.3382    1.6512   27.3972 N   0  0  0  0  0  0  0  0  0  0  0  0
  -23.6790    3.4121   27.2538 O   0  0  0  0  0  0  0  0  0  0  0  0
  -30.1135   -1.1459   30.8208 C   0  0  0  0  0  0  0  0  0  0  0  0
  -31.0952   -1.7510   31.6222 C   0  0  0  0  0  0  0  0  0  0  0  0
  -31.4509   -1.1774   29.0020 C   0  0  0  0  0  0  0  0  0  0  0  0
  -31.6140   -0.8443   27.6147 C   0  0  0  0  0  0  0  0  0  0  0  0
  -32.3070   -1.9981   30.9520 C   0  0  0  0  0  0  0  0  0  0  0  0
  -32.4440   -1.7293   29.6634 C   0  0  0  0  0  0  0  0  0  0  0  0
  -31.0015    0.0081   27.0416 O   0  0  0  0  0  0  0  0  0  0  0  0
  -32.5181   -1.4913   27.0094 O   0  0  0  0  0  0  0  0  0  0  0  0
  -27.8536   -1.9399   29.3600 O   0  0  0  0  0  0  0  0  0  0  0  0
  -21.8199    0.5678   28.1549 C   0  0  0  0  0  0  0  0  0  0  0  0
  -22.4849   -0.0314   29.1534 C   0  0  0  0  0  0  0  0  0  0  0  0
  -20.5054    0.2612   27.9984 N   0  0  0  0  0  0  0  0  0  0  0  0
  -22.4466   -0.9216   29.9327 C   0  0  0  0  0  0  0  0  0  0  0  0
  -23.2501   -1.3963   30.9790 C   0  0  0  0  0  0  0  0  0  0  0  0
  -24.4724   -0.6312   31.1508 C   0  0  0  0  0  0  0  0  0  0  0  0
  -24.6313    0.5824   30.5734 C   0  0  0  0  0  0  0  0  0  0  0  0
  -23.6009    1.0449   29.6623 C   0  0  0  0  0  0  0  0  0  0  0  0
  -23.1250    2.3838   30.3242 C   0  0  0  0  0  0  0  0  0  0  0  0
  -24.8199    1.4101   31.7345 F   0  0  0  0  0  0  0  0  0  0  0  0
  1  2  1  0
  1  8  1  0
  8  9  1  0
  5 10  1  0
 10 11  2  3
 10 12  1  0
 15 16  1  0
 16 19  2  0
 16 20  1  0
  1 21  2  0
 11 22  1  0
 22 23  1  0
 22 24  1  0
 29 30  1  0
 28 31  1  0
  2  3  2  0
  3  4  1  0
  4  5  2  0
  5  6  1  0
  6  7  2  0
  7  2  1  0
 23 25  2  0
 25 26  1  0
 26 27  2  0
 27 28  1  0
 28 29  2  0
 29 23  1  0
  9 13  2  0
 13 14  1  0
 14 17  2  0
 17 18  1  0
 18 15  2  0
 15  9  1  0
M  END

$$$$
