No_513-gen_results/8p0m/2024-11-27-11-27-31/
     RDKit          3D

 22 23  0  0  0  0  0  0  0  0999 V2000
  -28.0162   -0.8135   28.8779 C   0  0  0  0  0  0  0  0  0  0  0  0
  -27.0636   -0.1189   28.6079 C   0  0  0  0  0  0  0  0  0  0  0  0
  -27.0010    0.6913   27.4910 C   0  0  0  0  0  0  0  0  0  0  0  0
  -25.8548    1.4825   27.0830 C   0  0  0  0  0  0  0  0  0  0  0  0
  -24.6901    1.4526   27.8807 C   0  0  0  0  0  0  0  0  0  0  0  0
  -24.7379    0.6010   29.0416 C   0  0  0  0  0  0  0  0  0  0  0  0
  -25.8234   -0.1688   29.3887 C   0  0  0  0  0  0  0  0  0  0  0  0
  -28.7350   -0.4637   30.1419 C   0  0  0  0  0  0  0  0  0  0  0  0
  -28.7831    0.6118   30.5175 C   0  0  0  0  0  0  0  0  0  0  0  0
  -29.5935    0.9569   31.7959 C   0  0  0  0  0  0  0  0  0  0  0  0
  -30.1904   -0.1138   32.4264 C   0  0  0  0  0  0  0  0  0  0  0  0
  -29.4171   -1.5941   30.8826 C   0  0  0  0  0  0  0  0  0  0  0  0
  -30.1029   -1.3710   32.0011 C   0  0  0  0  0  0  0  0  0  0  0  0
  -23.4918    2.1599   27.5605 C   0  0  0  0  0  0  0  0  0  0  0  0
  -22.6180    1.6918   27.1684 O   0  0  0  0  0  0  0  0  0  0  0  0
  -23.7068    3.5093   27.6062 O   0  0  0  0  0  0  0  0  0  0  0  0
  -28.0622    0.7998   26.6559 N   0  0  0  0  0  0  0  0  0  0  0  0
  -28.0667    0.7838   25.3510 C   0  0  0  0  0  0  0  0  0  0  0  0
  -29.2690    0.5084   24.6651 C   0  0  0  0  0  0  0  0  0  0  0  0
  -29.6210   -0.5666   24.1863 C   0  0  0  0  0  0  0  0  0  0  0  0
  -30.9106   -0.8896   23.6290 C   0  0  0  0  0  0  0  0  0  0  0  0
  -31.7678    0.1731   23.3938 C   0  0  0  0  0  0  0  0  0  0  0  0
  1  2  1  0
  1  8  1  0
  5 14  1  0
 14 15  2  0
 14 16  1  0
  3 17  1  0
 17 18  1  0
 18 19  2  3
 19 20  1  0
 20 21  2  3
 21 22  1  0
  2  3  2  0
  3  4  1  0
  4  5  2  0
  5  6  1  0
  6  7  2  0
  7  2  1  0
  8  9  2  0
  9 10  1  0
 10 11  2  0
 11 13  1  0
 13 12  2  0
 12  8  1  0
M  END

$$$$
