No_55-gen_results/8p0m/2024-11-27-11-27-31/
     RDKit          3D

 33 37  0  0  0  0  0  0  0  0999 V2000
  -28.0162   -0.8135   28.8779 C   0  0  0  0  0  0  0  0  0  0  0  0
  -28.4690   -0.7850   29.8287 C   0  0  0  0  0  0  0  0  0  0  0  0
  -27.0871    0.2903   28.6377 C   0  0  0  0  0  0  0  0  0  0  0  0
  -26.8317    1.2487   29.5869 C   0  0  0  0  0  0  0  0  0  0  0  0
  -28.3914    0.0801   31.0065 C   0  0  0  0  0  0  0  0  0  0  0  0
  -27.4940    1.1521   30.7841 C   0  0  0  0  0  0  0  0  0  0  0  0
  -26.3172    0.3994   27.3653 C   0  0  0  0  0  0  0  0  0  0  0  0
  -26.8815    0.9711   26.3721 C   0  0  0  0  0  0  0  0  0  0  0  0
  -25.0088   -0.0567   27.3826 C   0  0  0  0  0  0  0  0  0  0  0  0
  -28.1703    1.4323   26.2851 C   0  0  0  0  0  0  0  0  0  0  0  0
  -28.8482    1.7560   27.1858 C   0  0  0  0  0  0  0  0  0  0  0  0
  -30.2203    2.3796   26.9554 C   0  0  0  0  0  0  0  0  0  0  0  0
  -31.0753    2.7350   27.9941 C   0  0  0  0  0  0  0  0  0  0  0  0
  -32.2952    3.1437   27.7768 C   0  0  0  0  0  0  0  0  0  0  0  0
  -32.7141    3.3024   26.4319 C   0  0  0  0  0  0  0  0  0  0  0  0
  -31.9160    3.0016   25.3921 C   0  0  0  0  0  0  0  0  0  0  0  0
  -30.6776    2.5255   25.6545 C   0  0  0  0  0  0  0  0  0  0  0  0
  -28.9602    1.0891   25.0374 C   0  0  0  0  0  0  0  0  0  0  0  0
  -29.9075    1.4154   24.8540 C   0  0  0  0  0  0  0  0  0  0  0  0
  -25.9895    1.3160   25.2129 C   0  0  0  0  0  0  0  0  0  0  0  0
  -23.9497    0.8487   27.2891 C   0  0  0  0  0  0  0  0  0  0  0  0
  -23.6902    1.6633   26.0747 C   0  0  0  0  0  0  0  0  0  0  0  0
  -24.5150    1.9629   25.2449 C   0  0  0  0  0  0  0  0  0  0  0  0
  -22.5436    2.2295   26.0526 F   0  0  0  0  0  0  0  0  0  0  0  0
  -29.6443   -2.1340   30.2511 Cl  0  0  0  0  0  0  0  0  0  0  0  0
  -30.6086    2.6287   29.4460 C   0  0  0  0  0  0  0  0  0  0  0  0
  -29.9620    3.7323   30.0792 C   0  0  0  0  0  0  0  0  0  0  0  0
  -29.0679    4.4641   29.5176 C   0  0  0  0  0  0  0  0  0  0  0  0
  -28.4382    5.5271   30.1806 C   0  0  0  0  0  0  0  0  0  0  0  0
  -30.2236    3.9520   31.5061 C   0  0  0  0  0  0  0  0  0  0  0  0
  -29.6162    4.9923   32.1896 C   0  0  0  0  0  0  0  0  0  0  0  0
  -28.6966    5.7918   31.5382 C   0  0  0  0  0  0  0  0  0  0  0  0
  -30.9882    1.5791   30.1127 O   0  0  0  0  0  0  0  0  0  0  0  0
  3  7  1  0
  7  8  1  0
  7  9  1  0
  8 10  1  0
  8 20  1  0
  9 21  2  0
 21 22  1  0
 20 23  2  0
 22 23  1  0
 22 24  1  0
  2 25  1  0
 13 26  1  0
 26 27  1  0
 26 33  2  0
 12 13  2  0
 13 14  1  0
 14 15  2  0
 15 16  1  0
 16 17  2  0
 10 11  2  0
 11 12  1  0
 12 17  1  0
 17 19  1  0
 19 18  2  0
 18 10  1  0
  1  2  2  0
  2  5  1  0
  5  6  2  0
  6  4  1  0
  4  3  2  0
  3  1  1  0
 27 28  2  0
 28 29  1  0
 29 32  2  0
 32 31  1  0
 31 30  2  0
 30 27  1  0
M  END

$$$$
