No_506-gen_results/8p0m/2024-11-27-11-27-31/
     RDKit          3D

 15 16  0  0  0  0  0  0  0  0999 V2000
  -28.0162   -0.8135   28.8779 C   0  0  0  0  0  0  0  0  0  0  0  0
  -27.0636   -0.1189   28.6079 C   0  0  0  0  0  0  0  0  0  0  0  0
  -26.9716    0.7139   27.5060 C   0  0  0  0  0  0  0  0  0  0  0  0
  -28.1053    0.7744   26.6421 C   0  0  0  0  0  0  0  0  0  0  0  0
  -29.2041    0.1179   27.0477 C   0  0  0  0  0  0  0  0  0  0  0  0
  -29.2127   -0.6088   28.1281 C   0  0  0  0  0  0  0  0  0  0  0  0
  -30.3053    0.2258   26.1930 N   0  0  0  0  0  0  0  0  0  0  0  0
  -30.2058    0.0159   24.9027 C   0  0  0  0  0  0  0  0  0  0  0  0
  -31.6277    0.3727   26.7076 C   0  0  0  0  0  0  0  0  0  0  0  0
  -25.6546    1.3863   27.1071 C   0  0  0  0  0  0  0  0  0  0  0  0
  -25.4024    2.1391   26.1907 C   0  0  0  0  0  0  0  0  0  0  0  0
  -24.2595    2.8383   26.1827 C   0  0  0  0  0  0  0  0  0  0  0  0
  -23.1247    2.5267   26.9667 C   0  0  0  0  0  0  0  0  0  0  0  0
  -23.3344    1.5026   27.9228 C   0  0  0  0  0  0  0  0  0  0  0  0
  -24.6131    0.9522   28.0548 C   0  0  0  0  0  0  0  0  0  0  0  0
  5  7  1  0
  7  8  1  0
  7  9  1  0
  3 10  1  0
  1  2  2  0
  2  3  1  0
  3  4  2  0
  4  5  1  0
  5  6  2  0
  6  1  1  0
 10 11  2  0
 11 12  1  0
 12 13  2  0
 13 14  1  0
 14 15  2  0
 15 10  1  0
M  END

$$$$
