No_507-gen_results/8p0m/2024-11-27-11-27-31/
     RDKit          3D

 14 14  0  0  0  0  0  0  0  0999 V2000
  -28.0162   -0.8135   28.8779 C   0  0  0  0  0  0  0  0  0  0  0  0
  -27.0636   -0.1189   28.6079 C   0  0  0  0  0  0  0  0  0  0  0  0
  -25.7923   -0.4302   29.0761 C   0  0  0  0  0  0  0  0  0  0  0  0
  -25.5681   -1.2411   29.7572 C   0  0  0  0  0  0  0  0  0  0  0  0
  -26.6114   -2.1840   30.2439 C   0  0  0  0  0  0  0  0  0  0  0  0
  -27.8191   -1.9189   29.8034 C   0  0  0  0  0  0  0  0  0  0  0  0
  -28.9162   -2.8082   30.2727 C   0  0  0  0  0  0  0  0  0  0  0  0
  -28.7398   -4.0163   30.2622 O   0  0  0  0  0  0  0  0  0  0  0  0
  -29.7667   -2.3585   31.0345 F   0  0  0  0  0  0  0  0  0  0  0  0
  -27.2229    1.0886   27.6549 C   0  0  0  0  0  0  0  0  0  0  0  0
  -26.8875    2.0415   27.5355 C   0  0  0  0  0  0  0  0  0  0  0  0
  -26.5974    3.0117   27.0775 C   0  0  0  0  0  0  0  0  0  0  0  0
  -27.0105    3.6994   26.2404 C   0  0  0  0  0  0  0  0  0  0  0  0
  -28.0638    3.0104   25.4440 C   0  0  0  0  0  0  0  0  0  0  0  0
  6  7  1  0
  7  8  2  0
  7  9  1  0
  2 10  1  0
 10 11  2  3
 11 12  1  0
 12 13  2  3
 13 14  1  0
  1  2  2  0
  2  3  1  0
  3  4  2  0
  4  5  1  0
  5  6  2  0
  6  1  1  0
M  END

$$$$
