No_520-gen_results/8p0m/2024-11-27-11-27-31/
     RDKit          3D

 15 17  0  0  0  0  0  0  0  0999 V2000
  -28.0162   -0.8135   28.8779 C   0  0  0  0  0  0  0  0  0  0  0  0
  -28.4690   -0.7850   29.8287 C   0  0  0  0  0  0  0  0  0  0  0  0
  -26.5455   -0.8762   28.8500 C   0  0  0  0  0  0  0  0  0  0  0  0
  -25.8041   -1.0324   30.0571 C   0  0  0  0  0  0  0  0  0  0  0  0
  -26.5373   -1.0386   31.2171 C   0  0  0  0  0  0  0  0  0  0  0  0
  -27.8843   -0.9532   31.1862 C   0  0  0  0  0  0  0  0  0  0  0  0
  -24.3655   -1.1134   30.0483 C   0  0  0  0  0  0  0  0  0  0  0  0
  -23.6254   -0.9435   29.0230 C   0  0  0  0  0  0  0  0  0  0  0  0
  -22.3775   -0.3348   29.0683 C   0  0  0  0  0  0  0  0  0  0  0  0
  -21.9934    0.7172   28.8174 C   0  0  0  0  0  0  0  0  0  0  0  0
  -22.8988    1.6876   28.2449 C   0  0  0  0  0  0  0  0  0  0  0  0
  -23.9977    1.3611   27.5812 C   0  0  0  0  0  0  0  0  0  0  0  0
  -24.4075   -0.4879   27.9131 N   0  0  0  0  0  0  0  0  0  0  0  0
  -25.7580   -0.5682   27.7294 N   0  0  0  0  0  0  0  0  0  0  0  0
  -24.7322    1.8858   26.8711 F   0  0  0  0  0  0  0  0  0  0  0  0
  4  7  1  0
  8  9  1  0
 10 11  1  0
  8 13  1  0
 12 13  1  0
  3 14  1  0
 13 14  1  0
 12 15  1  0
  9 10  1  0
 11 12  1  0
  8  7  1  0
  1  2  2  0
  2  6  1  0
  6  5  2  0
  5  4  1  0
  4  3  2  0
  3  1  1  0
M  END

$$$$
