No_537-gen_results/8p0m/2024-11-27-11-27-31/
     RDKit          3D

 28 29  0  0  0  0  0  0  0  0999 V2000
  -28.0162   -0.8135   28.8779 C   0  0  0  0  0  0  0  0  0  0  0  0
  -27.0636   -0.1189   28.6079 C   0  0  0  0  0  0  0  0  0  0  0  0
  -26.9287    1.1713   29.0083 C   0  0  0  0  0  0  0  0  0  0  0  0
  -27.9560    1.7411   29.7840 C   0  0  0  0  0  0  0  0  0  0  0  0
  -29.0569   -0.3271   29.7466 C   0  0  0  0  0  0  0  0  0  0  0  0
  -28.9828    0.9722   30.1516 C   0  0  0  0  0  0  0  0  0  0  0  0
  -25.8907   -0.6263   27.7857 C   0  0  0  0  0  0  0  0  0  0  0  0
  -24.7183   -1.0610   28.6129 C   0  0  0  0  0  0  0  0  0  0  0  0
  -23.5950   -0.2827   28.8125 C   0  0  0  0  0  0  0  0  0  0  0  0
  -22.5044   -0.8064   29.5509 C   0  0  0  0  0  0  0  0  0  0  0  0
  -24.8981   -2.1862   29.4502 C   0  0  0  0  0  0  0  0  0  0  0  0
  -23.7851   -2.6587   30.1837 C   0  0  0  0  0  0  0  0  0  0  0  0
  -22.6360   -1.9168   30.2824 C   0  0  0  0  0  0  0  0  0  0  0  0
  -30.1763   -1.2160   30.1266 C   0  0  0  0  0  0  0  0  0  0  0  0
  -30.8807   -0.8472   31.1157 O   0  0  0  0  0  0  0  0  0  0  0  0
  -30.1099   -2.4038   29.8306 O   0  0  0  0  0  0  0  0  0  0  0  0
  -23.3940    0.9684   28.0136 C   0  0  0  0  0  0  0  0  0  0  0  0
  -22.2740    1.2727   27.7866 F   0  0  0  0  0  0  0  0  0  0  0  0
  -24.0436    1.9963   28.7601 F   0  0  0  0  0  0  0  0  0  0  0  0
  -23.9694    0.8793   26.7934 F   0  0  0  0  0  0  0  0  0  0  0  0
  -27.8415    3.1870   30.2265 C   0  0  0  0  0  0  0  0  0  0  0  0
  -27.8516    3.5778   31.3114 N   0  0  0  0  0  0  0  0  0  0  0  0
  -27.6737    4.8335   31.7336 C   0  0  0  0  0  0  0  0  0  0  0  0
  -27.7306    3.9867   29.1798 F   0  0  0  0  0  0  0  0  0  0  0  0
  -27.2975    5.5316   32.4257 C   0  0  0  0  0  0  0  0  0  0  0  0
  -27.2683    6.9837   32.5347 C   0  0  0  0  0  0  0  0  0  0  0  0
  -27.7639    7.6074   31.4041 C   0  0  0  0  0  0  0  0  0  0  0  0
  -28.1911    6.8840   30.3592 C   0  0  0  0  0  0  0  0  0  0  0  0
  2  7  1  0
  7  8  1  0
  5 14  1  0
 14 15  1  0
 14 16  2  0
  9 17  1  0
 17 18  1  0
 17 19  1  0
 17 20  1  0
  4 21  1  0
 21 22  1  0
 22 23  2  3
 21 24  1  0
 23 25  1  0
 25 26  2  3
 26 27  1  0
 27 28  2  0
  8  9  2  0
  9 10  1  0
 10 13  2  0
 13 12  1  0
 12 11  2  0
 11  8  1  0
  1  2  2  0
  2  3  1  0
  3  4  2  0
  4  6  1  0
  6  5  2  0
  5  1  1  0
M  END

$$$$
