No_521-gen_results/8p0m/2024-11-27-11-27-31/
     RDKit          3D

 20 21  0  0  0  0  0  0  0  0999 V2000
  -28.0162   -0.8135   28.8779 C   0  0  0  0  0  0  0  0  0  0  0  0
  -27.0636   -0.1189   28.6079 C   0  0  0  0  0  0  0  0  0  0  0  0
  -26.9716    0.7139   27.5060 C   0  0  0  0  0  0  0  0  0  0  0  0
  -28.1053    0.7744   26.6421 C   0  0  0  0  0  0  0  0  0  0  0  0
  -29.2041    0.1179   27.0477 C   0  0  0  0  0  0  0  0  0  0  0  0
  -29.2127   -0.6088   28.1281 C   0  0  0  0  0  0  0  0  0  0  0  0
  -25.8738    1.4073   27.1728 F   0  0  0  0  0  0  0  0  0  0  0  0
  -30.3669    0.2295   26.1371 C   0  0  0  0  0  0  0  0  0  0  0  0
  -31.3710   -0.2376   26.4196 O   0  0  0  0  0  0  0  0  0  0  0  0
  -30.3347    1.0926   25.1674 O   0  0  0  0  0  0  0  0  0  0  0  0
  -28.0276   -1.7912   30.3363 Cl  0  0  0  0  0  0  0  0  0  0  0  0
  -25.8621   -0.2774   29.6280 C   0  0  0  0  0  0  0  0  0  0  0  0
  -24.5442    0.0575   29.2094 C   0  0  0  0  0  0  0  0  0  0  0  0
  -23.5135   -0.7817   29.4779 C   0  0  0  0  0  0  0  0  0  0  0  0
  -23.6772   -1.7628   30.4653 C   0  0  0  0  0  0  0  0  0  0  0  0
  -24.9837   -2.1219   30.8687 C   0  0  0  0  0  0  0  0  0  0  0  0
  -25.9403   -1.4377   30.4015 C   0  0  0  0  0  0  0  0  0  0  0  0
  -26.6810   -1.3459   31.1380 C   0  0  0  0  0  0  0  0  0  0  0  0
  -26.9628   -1.2879   32.3979 O   0  0  0  0  0  0  0  0  0  0  0  0
  -26.9780    0.2432   31.2895 C   0  0  0  0  0  0  0  0  0  0  0  0
  3  7  1  0
  5  8  1  0
  8  9  1  0
  8 10  2  0
  1 11  1  0
  2 12  1  0
 17 18  1  0
 18 19  2  0
 18 20  1  0
 12 13  2  0
 13 14  1  0
 14 15  2  0
 15 16  1  0
 16 17  2  0
 17 12  1  0
  1  2  2  0
  2  3  1  0
  3  4  2  0
  4  5  1  0
  5  6  2  0
  6  1  1  0
M  END

$$$$
