No_566-gen_results/8p0m/2024-11-27-11-27-31/
     RDKit          3D

 12 12  0  0  0  0  0  0  0  0999 V2000
  -28.1229   -1.3353   28.4874 O   0  0  0  0  0  0  0  0  0  0  0  0
  -27.0637   -0.8242   28.8687 C   0  0  0  0  0  0  0  0  0  0  0  0
  -26.8937   -0.2656   29.6815 N   0  0  0  0  0  0  0  0  0  0  0  0
  -25.7431   -1.2103   28.0363 C   0  0  0  0  0  0  0  0  0  0  0  0
  -24.4803   -0.7282   28.5465 C   0  0  0  0  0  0  0  0  0  0  0  0
  -25.7061    0.3704   30.3099 C   0  0  0  0  0  0  0  0  0  0  0  0
  -24.4908    0.1104   29.6305 C   0  0  0  0  0  0  0  0  0  0  0  0
  -23.2544    0.6473   30.1139 C   0  0  0  0  0  0  0  0  0  0  0  0
  -23.2529    1.4683   30.9575 O   0  0  0  0  0  0  0  0  0  0  0  0
  -22.0985    0.1956   29.6767 O   0  0  0  0  0  0  0  0  0  0  0  0
  -24.6150    0.8783   29.0014 F   0  0  0  0  0  0  0  0  0  0  0  0
  -23.9897   -1.8979   29.1034 O   0  0  0  0  0  0  0  0  0  0  0  0
  1  2  2  0
  2  3  1  0
  2  4  1  0
  4  5  1  0
  5  7  1  0
  6  7  1  0
  7  8  1  0
  8  9  1  0
  8 10  2  0
  7 11  1  0
  5 12  1  0
  3  6  1  0
M  END

$$$$
