No_688-gen_results/8p0m/2024-11-27-11-27-31/
     RDKit          3D

 26 28  0  0  0  0  0  0  0  0999 V2000
  -28.0162   -0.8135   28.8779 C   0  0  0  0  0  0  0  0  0  0  0  0
  -28.4690   -0.7850   29.8287 C   0  0  0  0  0  0  0  0  0  0  0  0
  -26.5042   -0.7777   28.8766 C   0  0  0  0  0  0  0  0  0  0  0  0
  -25.6540   -0.6597   27.7191 C   0  0  0  0  0  0  0  0  0  0  0  0
  -27.9180   -0.9374   31.1824 C   0  0  0  0  0  0  0  0  0  0  0  0
  -26.5423   -0.9399   31.2606 C   0  0  0  0  0  0  0  0  0  0  0  0
  -25.7832   -0.8935   30.1201 C   0  0  0  0  0  0  0  0  0  0  0  0
  -25.2393    0.5761   27.4012 N   0  0  0  0  0  0  0  0  0  0  0  0
  -25.4184    1.0491   26.1661 C   0  0  0  0  0  0  0  0  0  0  0  0
  -24.5161    1.4055   28.2552 C   0  0  0  0  0  0  0  0  0  0  0  0
  -24.0489    2.5843   27.8712 C   0  0  0  0  0  0  0  0  0  0  0  0
  -24.9584    2.3037   25.7222 C   0  0  0  0  0  0  0  0  0  0  0  0
  -24.2159    3.0899   26.6365 C   0  0  0  0  0  0  0  0  0  0  0  0
  -26.2247    0.2241   25.0084 Cl  0  0  0  0  0  0  0  0  0  0  0  0
  -30.2777   -0.7640   29.8464 Cl  0  0  0  0  0  0  0  0  0  0  0  0
  -25.2391   -1.6416   27.2076 O   0  0  0  0  0  0  0  0  0  0  0  0
  -28.7808   -1.0587   32.4345 C   0  0  0  0  0  0  0  0  0  0  0  0
  -28.4092   -0.3836   33.3759 N   0  0  0  0  0  0  0  0  0  0  0  0
  -28.5165   -0.8141   34.6059 C   0  0  0  0  0  0  0  0  0  0  0  0
  -27.9647    0.9731   33.2891 C   0  0  0  0  0  0  0  0  0  0  0  0
  -28.7342    1.8864   33.5632 C   0  0  0  0  0  0  0  0  0  0  0  0
  -28.3833    3.2284   33.2631 C   0  0  0  0  0  0  0  0  0  0  0  0
  -27.1512    3.5603   32.6985 C   0  0  0  0  0  0  0  0  0  0  0  0
  -26.2500    2.5152   32.4500 C   0  0  0  0  0  0  0  0  0  0  0  0
  -26.6431    1.2017   32.7152 C   0  0  0  0  0  0  0  0  0  0  0  0
  -29.6770   -1.8268   32.4082 O   0  0  0  0  0  0  0  0  0  0  0  0
  3  4  1  0
  4  8  1  0
  8  9  1  0
  8 10  1  0
 11 13  1  0
 12 13  1  0
  9 14  1  0
  2 15  1  0
  4 16  2  0
  5 17  1  0
 17 18  1  0
 18 19  1  0
 18 20  1  0
 17 26  2  0
  9 12  1  0
 11 10  1  0
  1  2  2  0
  2  5  1  0
  5  6  2  0
  6  7  1  0
  7  3  2  0
  3  1  1  0
 20 21  2  0
 21 22  1  0
 22 23  2  0
 23 24  1  0
 24 25  2  0
 25 20  1  0
M  END

$$$$
