No_602-gen_results/8p0m/2024-11-27-11-27-31/
     RDKit          3D

 18 19  0  0  0  0  0  0  0  0999 V2000
  -28.0162   -0.8135   28.8779 C   0  0  0  0  0  0  0  0  0  0  0  0
  -27.0636   -0.1189   28.6079 C   0  0  0  0  0  0  0  0  0  0  0  0
  -25.7647   -0.3897   29.0360 C   0  0  0  0  0  0  0  0  0  0  0  0
  -25.5296   -1.5302   29.9014 C   0  0  0  0  0  0  0  0  0  0  0  0
  -26.6577   -2.2915   30.2035 C   0  0  0  0  0  0  0  0  0  0  0  0
  -27.8548   -1.9555   29.7630 C   0  0  0  0  0  0  0  0  0  0  0  0
  -24.5441    0.4126   28.7379 C   0  0  0  0  0  0  0  0  0  0  0  0
  -23.3231    0.0476   29.0499 C   0  0  0  0  0  0  0  0  0  0  0  0
  -23.2018   -1.2373   29.7566 C   0  0  0  0  0  0  0  0  0  0  0  0
  -24.2259   -1.9647   30.2122 C   0  0  0  0  0  0  0  0  0  0  0  0
  -22.1154    0.7752   28.7156 C   0  0  0  0  0  0  0  0  0  0  0  0
  -21.0493    0.2934   28.6456 O   0  0  0  0  0  0  0  0  0  0  0  0
  -22.2471    1.9899   28.2387 O   0  0  0  0  0  0  0  0  0  0  0  0
  -28.9463   -2.6877   30.1134 F   0  0  0  0  0  0  0  0  0  0  0  0
  -27.2057    1.0907   27.6569 C   0  0  0  0  0  0  0  0  0  0  0  0
  -27.9215    1.9726   28.0323 F   0  0  0  0  0  0  0  0  0  0  0  0
  -25.9187    1.6379   27.5683 F   0  0  0  0  0  0  0  0  0  0  0  0
  -27.6035    0.5941   26.4843 F   0  0  0  0  0  0  0  0  0  0  0  0
  8 11  1  0
 11 12  2  0
 11 13  1  0
  6 14  1  0
  2 15  1  0
 15 16  1  0
 15 17  1  0
 15 18  1  0
  1  2  2  0
  2  3  1  0
  4  5  1  0
  5  6  2  0
  6  1  1  0
  3  4  2  0
  4 10  1  0
 10  9  2  0
  9  8  1  0
  8  7  2  0
  7  3  1  0
M  END

$$$$
