No_689-gen_results/8p0m/2024-11-27-11-27-31/
     RDKit          3D

 19 20  0  0  0  0  0  0  0  0999 V2000
  -28.0727   -1.2542   28.5316 F   0  0  0  0  0  0  0  0  0  0  0  0
  -28.2662   -0.4214   29.1931 C   0  0  0  0  0  0  0  0  0  0  0  0
  -29.4400   -0.1817   29.3649 F   0  0  0  0  0  0  0  0  0  0  0  0
  -27.6958   -0.7084   30.4324 F   0  0  0  0  0  0  0  0  0  0  0  0
  -27.5418    0.7768   28.6351 C   0  0  0  0  0  0  0  0  0  0  0  0
  -26.9446    0.8609   27.6283 C   0  0  0  0  0  0  0  0  0  0  0  0
  -26.2129    2.0007   27.0846 C   0  0  0  0  0  0  0  0  0  0  0  0
  -26.1609    3.1507   27.8778 C   0  0  0  0  0  0  0  0  0  0  0  0
  -26.8436    3.1082   29.0814 C   0  0  0  0  0  0  0  0  0  0  0  0
  -27.4626    1.9798   29.5479 C   0  0  0  0  0  0  0  0  0  0  0  0
  -25.3378    4.5051   27.3101 Cl  0  0  0  0  0  0  0  0  0  0  0  0
  -26.7559    4.3799   29.9583 C   0  0  0  0  0  0  0  0  0  0  0  0
  -25.9191    4.4796   30.9113 N   0  0  0  0  0  0  0  0  0  0  0  0
  -25.2910    3.4329   31.4366 C   0  0  0  0  0  0  0  0  0  0  0  0
  -24.3652    3.6819   32.5717 C   0  0  0  0  0  0  0  0  0  0  0  0
  -26.1060    5.5430   31.8506 C   0  0  0  0  0  0  0  0  0  0  0  0
  -25.1823    5.8515   32.8799 C   0  0  0  0  0  0  0  0  0  0  0  0
  -24.3634    4.8478   33.2331 C   0  0  0  0  0  0  0  0  0  0  0  0
  -27.5634    5.2865   29.5821 O   0  0  0  0  0  0  0  0  0  0  0  0
  1  2  1  0
  2  3  1  0
  2  4  1  0
  2  5  1  0
  8 11  1  0
  9 12  1  0
 12 13  1  0
 13 14  1  0
 13 16  1  0
 15 18  1  0
 17 18  1  0
 12 19  2  0
 14 15  1  0
 17 16  1  0
  5  6  2  0
  6  7  1  0
  7  8  2  0
  8  9  1  0
  9 10  2  0
 10  5  1  0
M  END

$$$$
