No_650-gen_results/8p0m/2024-11-27-11-27-31/
     RDKit          3D

 16 17  0  0  0  0  0  0  0  0999 V2000
  -28.0162   -0.8135   28.8779 C   0  0  0  0  0  0  0  0  0  0  0  0
  -28.4690   -0.7850   29.8287 C   0  0  0  0  0  0  0  0  0  0  0  0
  -28.1816    0.4277   28.1134 C   0  0  0  0  0  0  0  0  0  0  0  0
  -27.4498    0.6435   26.8500 C   0  0  0  0  0  0  0  0  0  0  0  0
  -27.8596    1.4573   25.9076 C   0  0  0  0  0  0  0  0  0  0  0  0
  -29.4263    0.1097   30.4178 C   0  0  0  0  0  0  0  0  0  0  0  0
  -29.6233    1.2198   29.7351 C   0  0  0  0  0  0  0  0  0  0  0  0
  -28.9609    1.4529   28.5513 C   0  0  0  0  0  0  0  0  0  0  0  0
  -27.1733    1.5743   24.7028 C   0  0  0  0  0  0  0  0  0  0  0  0
  -26.2980    0.6788   24.4655 C   0  0  0  0  0  0  0  0  0  0  0  0
  -25.7369   -0.2006   25.3237 C   0  0  0  0  0  0  0  0  0  0  0  0
  -26.3413   -0.2721   26.5414 C   0  0  0  0  0  0  0  0  0  0  0  0
  -30.6712    2.4799   30.3261 Cl  0  0  0  0  0  0  0  0  0  0  0  0
  -28.2861   -2.1346   30.7073 C   0  0  0  0  0  0  0  0  0  0  0  0
  -27.4502   -2.8944   30.3276 O   0  0  0  0  0  0  0  0  0  0  0  0
  -29.0358   -2.3394   31.6837 O   0  0  0  0  0  0  0  0  0  0  0  0
  3  4  1  0
  7 13  1  0
  2 14  1  0
 14 15  2  0
 14 16  1  0
  4  5  2  0
  5  9  1  0
  9 10  2  0
 10 11  1  0
 11 12  2  0
 12  4  1  0
  1  2  2  0
  2  6  1  0
  6  7  2  0
  7  8  1  0
  8  3  2  0
  3  1  1  0
M  END

$$$$
