No_601-gen_results/8p0m/2024-11-27-11-27-31/
     RDKit          3D

 11 12  0  0  0  0  0  0  0  0999 V2000
  -28.0162   -0.8135   28.8779 C   0  0  0  0  0  0  0  0  0  0  0  0
  -27.0636   -0.1189   28.6079 C   0  0  0  0  0  0  0  0  0  0  0  0
  -26.9716    0.7139   27.5060 C   0  0  0  0  0  0  0  0  0  0  0  0
  -28.1053    0.7744   26.6421 C   0  0  0  0  0  0  0  0  0  0  0  0
  -29.2041    0.1179   27.0477 C   0  0  0  0  0  0  0  0  0  0  0  0
  -29.2127   -0.6088   28.1281 C   0  0  0  0  0  0  0  0  0  0  0  0
  -30.2643    0.2460   25.9920 C   0  0  0  0  0  0  0  0  0  0  0  0
  -31.2404   -0.4654   26.1078 N   0  0  0  0  0  0  0  0  0  0  0  0
  -29.9644    0.6795   24.8377 O   0  0  0  0  0  0  0  0  0  0  0  0
  -31.6470   -1.1714   27.3036 C   0  0  0  0  0  0  0  0  0  0  0  0
  -30.4608   -1.3253   28.3259 N   0  0  0  0  0  0  0  0  0  0  0  0
  5  7  1  0
  7  8  1  0
  7  9  2  0
  8 10  1  0
  6 11  1  0
 11 10  1  0
  1  2  2  0
  2  3  1  0
  3  4  2  0
  4  5  1  0
  5  6  2  0
  6  1  1  0
M  END

$$$$
