No_671-gen_results/8p0m/2024-11-27-11-27-31/
     RDKit          3D

  6  5  0  0  0  0  0  0  0  0999 V2000
  -28.0162   -0.8135   28.8779 C   0  0  0  0  0  0  0  0  0  0  0  0
  -27.0636   -0.1189   28.6079 C   0  0  0  0  0  0  0  0  0  0  0  0
  -26.7751    0.5580   27.4144 C   0  0  0  0  0  0  0  0  0  0  0  0
  -25.5784    1.2379   27.0887 C   0  0  0  0  0  0  0  0  0  0  0  0
  -24.4685    1.2169   27.9606 C   0  0  0  0  0  0  0  0  0  0  0  0
  -24.6906    0.4935   29.1905 C   0  0  0  0  0  0  0  0  0  0  0  0
  1  2  3  0
  2  3  1  0
  3  4  1  0
  4  5  2  3
  5  6  1  0
M  END

$$$$
