No_624-gen_results/8p0m/2024-11-27-11-27-31/
     RDKit          3D

 29 32  0  0  0  0  0  0  0  0999 V2000
  -28.0162   -0.8135   28.8779 C   0  0  0  0  0  0  0  0  0  0  0  0
  -27.0636   -0.1189   28.6079 C   0  0  0  0  0  0  0  0  0  0  0  0
  -26.9716    0.7139   27.5060 C   0  0  0  0  0  0  0  0  0  0  0  0
  -28.1053    0.7744   26.6421 C   0  0  0  0  0  0  0  0  0  0  0  0
  -29.2008    0.1044   27.0527 C   0  0  0  0  0  0  0  0  0  0  0  0
  -29.2096   -0.6029   28.1853 C   0  0  0  0  0  0  0  0  0  0  0  0
  -30.3702    0.2264   26.1604 C   0  0  0  0  0  0  0  0  0  0  0  0
  -31.8029   -0.6347   26.5190 Br  0  0  0  0  0  0  0  0  0  0  0  0
  -30.2448    0.9420   24.8858 C   0  0  0  0  0  0  0  0  0  0  0  0
  -28.0049   -1.6624   30.1418 C   0  0  0  0  0  0  0  0  0  0  0  0
  -28.6402   -1.7699   30.9300 O   0  0  0  0  0  0  0  0  0  0  0  0
  -26.8858   -2.5495   30.0687 O   0  0  0  0  0  0  0  0  0  0  0  0
  -30.4860    2.1493   24.9232 C   0  0  0  0  0  0  0  0  0  0  0  0
  -29.9141    2.9848   25.7352 C   0  0  0  0  0  0  0  0  0  0  0  0
  -30.2132    4.4919   25.7061 C   0  0  0  0  0  0  0  0  0  0  0  0
  -31.0098    4.9237   26.2328 C   0  0  0  0  0  0  0  0  0  0  0  0
  -31.7138    4.3448   27.2591 C   0  0  0  0  0  0  0  0  0  0  0  0
  -31.0187    3.4866   28.0555 C   0  0  0  0  0  0  0  0  0  0  0  0
  -30.4935    2.6329   27.2424 C   0  0  0  0  0  0  0  0  0  0  0  0
  -30.0115    0.0663   23.8006 C   0  0  0  0  0  0  0  0  0  0  0  0
  -31.2015    2.7279   23.7611 C   0  0  0  0  0  0  0  0  0  0  0  0
  -31.2491    1.9649   22.6014 C   0  0  0  0  0  0  0  0  0  0  0  0
  -30.7820    0.6029   22.6651 C   0  0  0  0  0  0  0  0  0  0  0  0
  -31.2866    3.2418   29.4685 C   0  0  0  0  0  0  0  0  0  0  0  0
  -30.7643    3.6877   30.3085 C   0  0  0  0  0  0  0  0  0  0  0  0
  -32.3344    2.2105   29.7121 C   0  0  0  0  0  0  0  0  0  0  0  0
  -30.8848    3.4295   31.7702 C   0  0  0  0  0  0  0  0  0  0  0  0
  -32.6089    1.8706   31.0774 C   0  0  0  0  0  0  0  0  0  0  0  0
  -31.8784    2.4856   32.0924 C   0  0  0  0  0  0  0  0  0  0  0  0
  5  7  1  0
  7  8  1  0
  7  9  1  0
  1 10  1  0
 10 11  2  0
 10 12  1  0
 18 24  1  0
 14 13  1  0
  9 13  2  0
 13 21  1  0
 21 22  2  0
 22 23  1  0
 23 20  2  0
 20  9  1  0
  1  2  2  0
  2  3  1  0
  3  4  2  0
  4  5  1  0
  5  6  2  0
  6  1  1  0
 24 25  2  0
 25 27  1  0
 27 29  2  0
 29 28  1  0
 28 26  2  0
 26 24  1  0
 14 15  2  0
 15 16  1  0
 16 17  2  0
 17 18  1  0
 18 19  2  0
 19 14  1  0
M  END

$$$$
