No_663-gen_results/8p0m/2024-11-27-11-27-31/
     RDKit          3D

 35 38  0  0  0  0  0  0  0  0999 V2000
  -28.0162   -0.8135   28.8779 C   0  0  0  0  0  0  0  0  0  0  0  0
  -28.4690   -0.7850   29.8287 C   0  0  0  0  0  0  0  0  0  0  0  0
  -27.0871    0.2903   28.6377 C   0  0  0  0  0  0  0  0  0  0  0  0
  -26.7676    1.0274   29.4716 C   0  0  0  0  0  0  0  0  0  0  0  0
  -28.2764    0.0268   31.0145 C   0  0  0  0  0  0  0  0  0  0  0  0
  -27.3287    1.0538   30.7535 C   0  0  0  0  0  0  0  0  0  0  0  0
  -26.5054    0.1150   27.2538 C   0  0  0  0  0  0  0  0  0  0  0  0
  -25.1145    0.0631   27.2243 C   0  0  0  0  0  0  0  0  0  0  0  0
  -27.1815    0.3880   26.0587 C   0  0  0  0  0  0  0  0  0  0  0  0
  -26.5928    0.2546   24.8502 C   0  0  0  0  0  0  0  0  0  0  0  0
  -24.4252    0.1840   25.9760 C   0  0  0  0  0  0  0  0  0  0  0  0
  -25.2165    0.2028   24.8022 C   0  0  0  0  0  0  0  0  0  0  0  0
  -28.6646    0.4087   26.0625 C   0  0  0  0  0  0  0  0  0  0  0  0
  -29.2460    0.7820   27.0240 F   0  0  0  0  0  0  0  0  0  0  0  0
  -29.0211    1.0924   24.9765 F   0  0  0  0  0  0  0  0  0  0  0  0
  -24.2016   -0.0050   28.3773 C   0  0  0  0  0  0  0  0  0  0  0  0
  -23.2994    1.0286   28.6872 C   0  0  0  0  0  0  0  0  0  0  0  0
  -24.1935   -1.1830   29.1712 C   0  0  0  0  0  0  0  0  0  0  0  0
  -24.8470   -2.3713   29.0421 C   0  0  0  0  0  0  0  0  0  0  0  0
  -22.2442    0.9218   28.9061 C   0  0  0  0  0  0  0  0  0  0  0  0
  -21.9469   -0.2461   29.8157 C   0  0  0  0  0  0  0  0  0  0  0  0
  -22.9026   -1.3406   29.9346 C   0  0  0  0  0  0  0  0  0  0  0  0
  -25.0943   -3.2221   29.7149 C   0  0  0  0  0  0  0  0  0  0  0  0
  -25.8971   -4.4280   29.5266 C   0  0  0  0  0  0  0  0  0  0  0  0
  -27.2405   -4.1956   29.1325 C   0  0  0  0  0  0  0  0  0  0  0  0
  -28.2763   -4.5681   30.1646 C   0  0  0  0  0  0  0  0  0  0  0  0
  -29.6372   -4.6921   29.8107 C   0  0  0  0  0  0  0  0  0  0  0  0
  -30.0500   -4.5302   28.5329 C   0  0  0  0  0  0  0  0  0  0  0  0
  -31.4195   -4.5928   28.4006 C   0  0  0  0  0  0  0  0  0  0  0  0
  -31.9594   -4.4356   27.1036 C   0  0  0  0  0  0  0  0  0  0  0  0
  -32.1659   -5.6680   29.2441 C   0  0  0  0  0  0  0  0  0  0  0  0
  -31.7374   -5.7653   30.6141 C   0  0  0  0  0  0  0  0  0  0  0  0
  -30.3597   -5.3950   30.8904 C   0  0  0  0  0  0  0  0  0  0  0  0
  -32.7109   -5.2230   26.5753 O   0  0  0  0  0  0  0  0  0  0  0  0
  -31.6775   -3.2915   26.4976 O   0  0  0  0  0  0  0  0  0  0  0  0
  3  7  1  0
  9 13  1  0
 13 14  1  0
 13 15  1  0
  8 16  1  0
 18 19  1  0
 19 23  2  3
 23 24  1  0
 24 25  2  3
 25 26  1  0
 29 30  1  0
 30 34  2  0
 30 35  1  0
 26 27  1  0
 27 28  2  0
 28 29  1  0
 29 31  2  0
 31 32  1  0
 32 33  2  0
 33 27  1  0
  7  8  2  0
  8 11  1  0
 11 12  2  0
 12 10  1  0
 10  9  2  0
  9  7  1  0
 16 17  2  0
 17 20  1  0
 20 21  2  0
 21 22  1  0
 22 18  2  0
 18 16  1  0
  1  2  2  0
  2  5  1  0
  5  6  2  0
  6  4  1  0
  4  3  2  0
  3  1  1  0
M  END

$$$$
