No_667-gen_results/8p0m/2024-11-27-11-27-31/
     RDKit          3D

 15 16  0  0  0  0  0  0  0  0999 V2000
  -28.0162   -0.8135   28.8779 C   0  0  0  0  0  0  0  0  0  0  0  0
  -27.0636   -0.1189   28.6079 C   0  0  0  0  0  0  0  0  0  0  0  0
  -26.8756    1.1325   28.9134 C   0  0  0  0  0  0  0  0  0  0  0  0
  -27.9014    1.8066   29.6436 C   0  0  0  0  0  0  0  0  0  0  0  0
  -29.0458   -0.2316   29.7181 C   0  0  0  0  0  0  0  0  0  0  0  0
  -28.9402    1.0517   30.0597 C   0  0  0  0  0  0  0  0  0  0  0  0
  -30.1632   -1.1170   30.1252 C   0  0  0  0  0  0  0  0  0  0  0  0
  -31.1524   -1.1080   29.6513 O   0  0  0  0  0  0  0  0  0  0  0  0
  -29.8099   -2.0873   31.1380 N   0  0  0  0  0  0  0  0  0  0  0  0
  -28.5214   -2.2422   31.8249 C   0  0  0  0  0  0  0  0  0  0  0  0
  -30.8540   -2.9882   31.6316 C   0  0  0  0  0  0  0  0  0  0  0  0
  -25.8462   -0.7160   27.7780 C   0  0  0  0  0  0  0  0  0  0  0  0
  -25.1034    0.1229   26.9555 C   0  0  0  0  0  0  0  0  0  0  0  0
  -25.0353    1.4820   27.2467 C   0  0  0  0  0  0  0  0  0  0  0  0
  -25.9796    2.0631   28.1175 C   0  0  0  0  0  0  0  0  0  0  0  0
  5  7  1  0
  7  8  2  0
  7  9  1  0
  9 10  1  0
  9 11  1  0
  1  2  2  0
  3  4  2  0
  4  6  1  0
  6  5  2  0
  5  1  1  0
  2  3  1  0
  3 15  1  0
 15 14  2  0
 14 13  1  0
 13 12  2  0
 12  2  1  0
M  END

$$$$
