No_627-gen_results/8p0m/2024-11-27-11-27-31/
     RDKit          3D

 17 18  0  0  0  0  0  0  0  0999 V2000
  -28.0162   -0.8135   28.8779 C   0  0  0  0  0  0  0  0  0  0  0  0
  -28.4690   -0.7850   29.8287 C   0  0  0  0  0  0  0  0  0  0  0  0
  -26.5042   -0.7777   28.8766 C   0  0  0  0  0  0  0  0  0  0  0  0
  -25.8305   -1.6808   29.6849 C   0  0  0  0  0  0  0  0  0  0  0  0
  -29.9580   -0.6751   29.9291 C   0  0  0  0  0  0  0  0  0  0  0  0
  -30.5373    0.2538   29.1711 C   0  0  0  0  0  0  0  0  0  0  0  0
  -26.5286   -2.0640   30.8570 C   0  0  0  0  0  0  0  0  0  0  0  0
  -27.9373   -1.8592   30.8300 C   0  0  0  0  0  0  0  0  0  0  0  0
  -29.6979    1.1507   28.5572 C   0  0  0  0  0  0  0  0  0  0  0  0
  -28.5395    0.5278   27.8555 C   0  0  0  0  0  0  0  0  0  0  0  0
  -25.2044   -2.8221   28.9842 C   0  0  0  0  0  0  0  0  0  0  0  0
  -25.7242    0.4908   28.8547 C   0  0  0  0  0  0  0  0  0  0  0  0
  -24.5656    0.6174   28.7350 C   0  0  0  0  0  0  0  0  0  0  0  0
  -23.7582    1.3592   28.5072 C   0  0  0  0  0  0  0  0  0  0  0  0
  -22.2791    1.2424   28.3491 C   0  0  0  0  0  0  0  0  0  0  0  0
  -21.7655    0.0266   28.6629 C   0  0  0  0  0  0  0  0  0  0  0  0
  -22.6160   -1.0293   29.0390 C   0  0  0  0  0  0  0  0  0  0  0  0
  1  3  1  0
  3  4  1  0
  4  7  1  0
  2  8  1  0
  7  8  1  0
  4 11  1  0
  3 12  1  0
 12 13  2  3
 13 14  1  0
 14 15  2  3
 15 16  1  0
 16 17  2  0
  1  2  2  0
  2  5  1  0
  5  6  2  0
  6  9  1  0
  9 10  2  0
 10  1  1  0
M  END

$$$$
