No_615-gen_results/8p0m/2024-11-27-11-27-31/
     RDKit          3D

 35 38  0  0  0  0  0  0  0  0999 V2000
  -28.0162   -0.8135   28.8779 C   0  0  0  0  0  0  0  0  0  0  0  0
  -28.4690   -0.7850   29.8287 C   0  0  0  0  0  0  0  0  0  0  0  0
  -27.0871    0.2903   28.6377 C   0  0  0  0  0  0  0  0  0  0  0  0
  -26.0238    0.3644   29.2526 C   0  0  0  0  0  0  0  0  0  0  0  0
  -27.5370   -0.6187   31.0883 C   0  0  0  0  0  0  0  0  0  0  0  0
  -26.3844    0.1834   30.8012 C   0  0  0  0  0  0  0  0  0  0  0  0
  -29.6173   -1.6885   30.3080 C   0  0  0  0  0  0  0  0  0  0  0  0
  -30.7517   -1.2928   29.8295 N   0  0  0  0  0  0  0  0  0  0  0  0
  -31.7051   -2.1638   29.4218 C   0  0  0  0  0  0  0  0  0  0  0  0
  -29.5213   -2.7132   31.0203 O   0  0  0  0  0  0  0  0  0  0  0  0
  -32.4360   -1.7922   28.2986 C   0  0  0  0  0  0  0  0  0  0  0  0
  -32.2535   -0.5333   27.7667 C   0  0  0  0  0  0  0  0  0  0  0  0
  -31.2731    0.3363   28.2214 C   0  0  0  0  0  0  0  0  0  0  0  0
  -30.7525    0.0471   29.4403 C   0  0  0  0  0  0  0  0  0  0  0  0
  -26.8936    0.6905   27.1397 C   0  0  0  0  0  0  0  0  0  0  0  0
  -27.7149    1.0827   26.4113 C   0  0  0  0  0  0  0  0  0  0  0  0
  -27.6868    1.3712   25.2741 C   0  0  0  0  0  0  0  0  0  0  0  0
  -26.4847    1.1086   24.5111 C   0  0  0  0  0  0  0  0  0  0  0  0
  -25.5878    0.5331   26.4471 C   0  0  0  0  0  0  0  0  0  0  0  0
  -25.4302    0.7053   25.2130 C   0  0  0  0  0  0  0  0  0  0  0  0
  -33.0535   -0.1737   26.5386 C   0  0  0  0  0  0  0  0  0  0  0  0
  -33.7626   -0.8215   25.9261 O   0  0  0  0  0  0  0  0  0  0  0  0
  -32.6193    1.0355   25.8079 N   0  0  0  0  0  0  0  0  0  0  0  0
  -33.2575    1.4537   24.6198 C   0  0  0  0  0  0  0  0  0  0  0  0
  -28.6839    1.8591   24.2403 C   0  0  0  0  0  0  0  0  0  0  0  0
  -29.3386    3.0286   24.7037 C   0  0  0  0  0  0  0  0  0  0  0  0
  -30.4179    3.4381   24.4901 C   0  0  0  0  0  0  0  0  0  0  0  0
  -31.4107    2.7459   23.7165 C   0  0  0  0  0  0  0  0  0  0  0  0
  -32.2746    1.8026   24.0045 C   0  0  0  0  0  0  0  0  0  0  0  0
  -31.8395    0.5981   22.9551 C   0  0  0  0  0  0  0  0  0  0  0  0
  -31.7519    3.5312   22.4331 C   0  0  0  0  0  0  0  0  0  0  0  0
  -25.4238    0.5194   31.8381 C   0  0  0  0  0  0  0  0  0  0  0  0
  -25.7139    1.0035   32.9002 C   0  0  0  0  0  0  0  0  0  0  0  0
  -24.2369   -0.3792   31.8528 C   0  0  0  0  0  0  0  0  0  0  0  0
  -23.9781   -1.3443   32.6976 C   0  0  0  0  0  0  0  0  0  0  0  0
  2  7  1  0
  7  8  1  0
  8  9  1  0
  7 10  2  0
 11 12  1  0
  8 14  1  0
 13 14  1  0
  3 15  1  0
 12 21  1  0
 21 22  2  0
 21 23  1  0
 23 24  1  0
 17 25  1  0
 25 26  2  3
 26 27  1  0
 27 28  2  3
 24 29  2  3
 28 29  1  0
 29 30  1  0
 28 31  1  0
  6 32  1  0
 32 33  1  0
 32 34  1  0
 34 35  1  0
  9 11  1  0
 12 13  1  0
 15 16  2  0
 16 17  1  0
 17 18  2  0
 18 20  1  0
 20 19  2  0
 19 15  1  0
  1  2  2  0
  2  5  1  0
  5  6  2  0
  6  4  1  0
  4  3  2  0
  3  1  1  0
M  END

$$$$
