No_672-gen_results/8p0m/2024-11-27-11-27-31/
     RDKit          3D

 15 17  0  0  0  0  0  0  0  0999 V2000
  -28.0162   -0.8135   28.8779 C   0  0  0  0  0  0  0  0  0  0  0  0
  -27.0636   -0.1189   28.6079 C   0  0  0  0  0  0  0  0  0  0  0  0
  -25.7647   -0.3897   29.0360 C   0  0  0  0  0  0  0  0  0  0  0  0
  -25.5296   -1.5302   29.9014 C   0  0  0  0  0  0  0  0  0  0  0  0
  -26.6888   -2.2893   30.1810 C   0  0  0  0  0  0  0  0  0  0  0  0
  -27.8727   -1.9508   29.7373 C   0  0  0  0  0  0  0  0  0  0  0  0
  -24.4208    0.2303   28.7927 C   0  0  0  0  0  0  0  0  0  0  0  0
  -23.2515   -0.1398   29.1486 C   0  0  0  0  0  0  0  0  0  0  0  0
  -23.2163   -1.3772   29.9163 C   0  0  0  0  0  0  0  0  0  0  0  0
  -24.2719   -2.0235   30.2631 C   0  0  0  0  0  0  0  0  0  0  0  0
  -22.0143    0.5020   28.7895 C   0  0  0  0  0  0  0  0  0  0  0  0
  -21.5525    0.9104   27.9761 N   0  0  0  0  0  0  0  0  0  0  0  0
  -22.3359    1.6838   27.0533 C   0  0  0  0  0  0  0  0  0  0  0  0
  -23.5689    1.6485   26.8701 C   0  0  0  0  0  0  0  0  0  0  0  0
  -24.5713    1.1629   27.5741 C   0  0  0  0  0  0  0  0  0  0  0  0
  8 11  1  0
 11 12  1  0
 12 13  1  0
 13 14  2  0
  7 15  1  0
 14 15  1  0
  1  2  2  0
  2  3  1  0
  4  5  1  0
  5  6  2  0
  6  1  1  0
  3  4  2  0
  4 10  1  0
 10  9  2  0
  9  8  1  0
  8  7  2  0
  7  3  1  0
M  END

$$$$
