No_61-gen_results/8p0m/2024-11-27-11-27-31/
     RDKit          3D

 21 23  0  0  0  0  0  0  0  0999 V2000
  -28.0162   -0.8135   28.8779 C   0  0  0  0  0  0  0  0  0  0  0  0
  -28.6208   -1.1855   29.7353 Cl  0  0  0  0  0  0  0  0  0  0  0  0
  -28.3999    0.3569   28.0304 C   0  0  0  0  0  0  0  0  0  0  0  0
  -29.7168    0.7374   28.0703 C   0  0  0  0  0  0  0  0  0  0  0  0
  -30.1430    1.7644   27.3173 C   0  0  0  0  0  0  0  0  0  0  0  0
  -29.1885    2.4576   26.3889 C   0  0  0  0  0  0  0  0  0  0  0  0
  -27.8322    2.0130   26.3488 C   0  0  0  0  0  0  0  0  0  0  0  0
  -27.4653    0.9700   27.1502 C   0  0  0  0  0  0  0  0  0  0  0  0
  -26.7076   -1.2214   28.5970 F   0  0  0  0  0  0  0  0  0  0  0  0
  -31.4921    2.3238   27.2872 C   0  0  0  0  0  0  0  0  0  0  0  0
  -32.1150    2.3055   28.4332 C   0  0  0  0  0  0  0  0  0  0  0  0
  -31.4865    1.9933   29.6353 C   0  0  0  0  0  0  0  0  0  0  0  0
  -32.3502    1.8736   30.7900 C   0  0  0  0  0  0  0  0  0  0  0  0
  -31.7920    1.5286   32.0597 C   0  0  0  0  0  0  0  0  0  0  0  0
  -30.3907    1.3750   32.1060 C   0  0  0  0  0  0  0  0  0  0  0  0
  -29.5932    1.6373   31.0517 C   0  0  0  0  0  0  0  0  0  0  0  0
  -30.1566    1.9173   29.8346 C   0  0  0  0  0  0  0  0  0  0  0  0
  -29.4417    2.4840   29.0197 N   0  0  0  0  0  0  0  0  0  0  0  0
  -28.5969    3.6577   28.9891 C   0  0  0  0  0  0  0  0  0  0  0  0
  -28.8038    2.6650   28.1907 C   0  0  0  0  0  0  0  0  0  0  0  0
  -27.4217    2.6652   27.8410 C   0  0  0  0  0  0  0  0  0  0  0  0
  1  2  1  0
  1  9  1  0
  5 10  1  0
 10 11  2  3
 11 12  1  0
 17 18  1  0
 18 19  1  0
 18 20  1  0
  7 21  1  0
 20 21  1  0
  1  3  1  0
 12 13  2  0
 13 14  1  0
 14 15  2  0
 15 16  1  0
 16 17  2  0
 17 12  1  0
  3  4  2  0
  4  5  1  0
  5  6  2  0
  6  7  1  0
  7  8  2  0
  8  3  1  0
M  END

$$$$
