No_6-gen_results/8p0m/2024-11-27-11-27-31/
     RDKit          3D

 33 36  0  0  0  0  0  0  0  0999 V2000
  -28.0162   -0.8135   28.8779 C   0  0  0  0  0  0  0  0  0  0  0  0
  -27.0636   -0.1189   28.6079 C   0  0  0  0  0  0  0  0  0  0  0  0
  -27.0788    0.9846   29.1738 F   0  0  0  0  0  0  0  0  0  0  0  0
  -25.6585   -0.7381   28.9306 C   0  0  0  0  0  0  0  0  0  0  0  0
  -27.0025    0.1583   27.2218 F   0  0  0  0  0  0  0  0  0  0  0  0
  -24.5977   -0.0744   28.6503 N   0  0  0  0  0  0  0  0  0  0  0  0
  -29.3029   -0.1740   29.1976 C   0  0  0  0  0  0  0  0  0  0  0  0
  -24.3715    0.8184   27.7736 C   0  0  0  0  0  0  0  0  0  0  0  0
  -23.0798    1.4331   27.7107 C   0  0  0  0  0  0  0  0  0  0  0  0
  -23.3256   -0.2087   29.4353 C   0  0  0  0  0  0  0  0  0  0  0  0
  -22.3819    0.7526   28.7919 C   0  0  0  0  0  0  0  0  0  0  0  0
  -29.9242   -0.5085   30.1778 O   0  0  0  0  0  0  0  0  0  0  0  0
  -27.7513   -1.4527   30.1908 F   0  0  0  0  0  0  0  0  0  0  0  0
  -29.8369    0.5256   28.2220 N   0  0  0  0  0  0  0  0  0  0  0  0
  -31.1722    1.0749   28.2723 C   0  0  0  0  0  0  0  0  0  0  0  0
  -31.5647    1.5079   27.1620 C   0  0  0  0  0  0  0  0  0  0  0  0
  -32.6842    2.0807   26.8971 C   0  0  0  0  0  0  0  0  0  0  0  0
  -32.9690    2.8467   25.7945 C   0  0  0  0  0  0  0  0  0  0  0  0
  -32.0536    2.8050   24.6740 C   0  0  0  0  0  0  0  0  0  0  0  0
  -30.8370    2.1876   24.8458 C   0  0  0  0  0  0  0  0  0  0  0  0
  -30.5576    1.6585   25.9858 C   0  0  0  0  0  0  0  0  0  0  0  0
  -31.1506    2.0818   29.3685 C   0  0  0  0  0  0  0  0  0  0  0  0
  -32.1498   -0.1153   28.6129 C   0  0  0  0  0  0  0  0  0  0  0  0
  -30.3631    3.0464   29.4570 C   0  0  0  0  0  0  0  0  0  0  0  0
  -30.3689    4.0676   30.4229 C   0  0  0  0  0  0  0  0  0  0  0  0
  -31.3843    4.0301   31.3357 C   0  0  0  0  0  0  0  0  0  0  0  0
  -32.2727    2.9776   31.3494 C   0  0  0  0  0  0  0  0  0  0  0  0
  -32.2116    2.0327   30.3941 C   0  0  0  0  0  0  0  0  0  0  0  0
  -32.7763   -0.7123   27.6148 C   0  0  0  0  0  0  0  0  0  0  0  0
  -33.1057   -1.6919   27.6844 C   0  0  0  0  0  0  0  0  0  0  0  0
  -33.1610   -2.4495   28.8790 C   0  0  0  0  0  0  0  0  0  0  0  0
  -32.6096   -1.9256   30.0125 C   0  0  0  0  0  0  0  0  0  0  0  0
  -32.0425   -0.7475   29.8846 C   0  0  0  0  0  0  0  0  0  0  0  0
  1  2  1  0
  2  3  1  0
  2  4  1  0
  2  5  1  0
  4  6  1  0
  1  7  1  0
  6  8  1  0
  8  9  2  0
  6 10  1  0
  9 11  1  0
 10 11  1  0
  7 12  2  0
  1 13  1  0
  7 14  1  0
 14 15  1  0
 15 16  1  0
 15 22  1  0
 15 23  1  0
 23 29  2  0
 29 30  1  0
 30 31  2  0
 31 32  1  0
 32 33  2  0
 33 23  1  0
 22 24  2  0
 24 25  1  0
 25 26  2  0
 26 27  1  0
 27 28  2  0
 28 22  1  0
 16 17  2  0
 17 18  1  0
 18 19  2  0
 19 20  1  0
 20 21  2  0
 21 16  1  0
M  END

$$$$
