No_675-gen_results/8p0m/2024-11-27-11-27-31/
     RDKit          3D

 34 37  0  0  0  0  0  0  0  0999 V2000
  -28.0162   -0.8135   28.8779 C   0  0  0  0  0  0  0  0  0  0  0  0
  -28.4690   -0.7850   29.8287 C   0  0  0  0  0  0  0  0  0  0  0  0
  -26.5042   -0.7777   28.8766 C   0  0  0  0  0  0  0  0  0  0  0  0
  -25.6540   -0.6597   27.7191 C   0  0  0  0  0  0  0  0  0  0  0  0
  -27.9180   -0.9374   31.1824 C   0  0  0  0  0  0  0  0  0  0  0  0
  -26.5423   -0.9399   31.2606 C   0  0  0  0  0  0  0  0  0  0  0  0
  -25.7832   -0.8935   30.1201 C   0  0  0  0  0  0  0  0  0  0  0  0
  -25.9259    0.2819   26.7445 C   0  0  0  0  0  0  0  0  0  0  0  0
  -25.6258    1.4719   26.8191 C   0  0  0  0  0  0  0  0  0  0  0  0
  -24.8156    1.9657   27.9646 C   0  0  0  0  0  0  0  0  0  0  0  0
  -23.8330    1.4118   28.3656 C   0  0  0  0  0  0  0  0  0  0  0  0
  -22.9005    1.9282   29.4059 C   0  0  0  0  0  0  0  0  0  0  0  0
  -23.5495   -0.0634   28.1006 C   0  0  0  0  0  0  0  0  0  0  0  0
  -24.3863   -1.0671   27.9269 C   0  0  0  0  0  0  0  0  0  0  0  0
  -30.0659   -0.7664   29.8665 C   0  0  0  0  0  0  0  0  0  0  0  0
  -30.7430   -1.5804   30.3037 O   0  0  0  0  0  0  0  0  0  0  0  0
  -30.5851    0.2616   29.2411 O   0  0  0  0  0  0  0  0  0  0  0  0
  -23.3586    2.3957   30.4689 O   0  0  0  0  0  0  0  0  0  0  0  0
  -21.7983    2.4116   28.8858 O   0  0  0  0  0  0  0  0  0  0  0  0
  -26.4048    2.5059   26.0630 C   0  0  0  0  0  0  0  0  0  0  0  0
  -27.5940    2.9684   26.4277 C   0  0  0  0  0  0  0  0  0  0  0  0
  -28.6080    3.1249   25.4740 C   0  0  0  0  0  0  0  0  0  0  0  0
  -29.8654    3.6687   25.8315 C   0  0  0  0  0  0  0  0  0  0  0  0
  -30.9058    3.9119   24.9324 C   0  0  0  0  0  0  0  0  0  0  0  0
  -30.8118    3.2097   23.7354 C   0  0  0  0  0  0  0  0  0  0  0  0
  -29.6348    2.4867   23.3907 C   0  0  0  0  0  0  0  0  0  0  0  0
  -28.5746    2.4504   24.2592 C   0  0  0  0  0  0  0  0  0  0  0  0
  -27.9028    3.2773   27.8202 C   0  0  0  0  0  0  0  0  0  0  0  0
  -27.5442    4.5002   28.2830 C   0  0  0  0  0  0  0  0  0  0  0  0
  -27.0400    5.5618   27.6791 C   0  0  0  0  0  0  0  0  0  0  0  0
  -26.5973    6.7312   28.2681 C   0  0  0  0  0  0  0  0  0  0  0  0
  -26.6023    6.8058   29.6617 C   0  0  0  0  0  0  0  0  0  0  0  0
  -27.0658    5.7418   30.4267 C   0  0  0  0  0  0  0  0  0  0  0  0
  -27.5075    4.5999   29.7979 C   0  0  0  0  0  0  0  0  0  0  0  0
  3  4  1  0
  4  8  1  0
  8  9  2  0
  9 10  1  0
 10 11  2  0
 11 12  1  0
 11 13  1  0
  4 14  1  0
 13 14  1  0
  2 15  1  0
 15 16  1  0
 15 17  2  0
 12 18  1  0
 12 19  2  0
  9 20  1  0
 20 21  1  0
 21 28  1  0
 28 29  1  0
 21 22  1  0
 29 30  2  0
 30 31  1  0
 31 32  2  0
 32 33  1  0
 33 34  2  0
 34 29  1  0
 22 23  2  0
 23 24  1  0
 24 25  2  0
 25 26  1  0
 26 27  2  0
 27 22  1  0
  1  2  2  0
  2  5  1  0
  5  6  2  0
  6  7  1  0
  7  3  2  0
  3  1  1  0
M  END

$$$$
