No_62-gen_results/8p0m/2024-11-27-11-27-31/
     RDKit          3D

 26 29  0  0  0  0  0  0  0  0999 V2000
  -28.0162   -0.8135   28.8779 C   0  0  0  0  0  0  0  0  0  0  0  0
  -28.4690   -0.7850   29.8287 C   0  0  0  0  0  0  0  0  0  0  0  0
  -26.5455   -0.8762   28.8500 C   0  0  0  0  0  0  0  0  0  0  0  0
  -25.8041   -1.0324   30.0571 C   0  0  0  0  0  0  0  0  0  0  0  0
  -26.5373   -1.0386   31.2171 C   0  0  0  0  0  0  0  0  0  0  0  0
  -27.8843   -0.9532   31.1862 C   0  0  0  0  0  0  0  0  0  0  0  0
  -24.3555   -1.1121   30.0346 C   0  0  0  0  0  0  0  0  0  0  0  0
  -23.7079   -1.1920   30.8827 C   0  0  0  0  0  0  0  0  0  0  0  0
  -22.4605   -0.6659   31.0778 C   0  0  0  0  0  0  0  0  0  0  0  0
  -21.7345   -0.3621   29.9043 C   0  0  0  0  0  0  0  0  0  0  0  0
  -22.4702   -0.2503   28.7026 C   0  0  0  0  0  0  0  0  0  0  0  0
  -23.8603   -0.6299   28.7320 C   0  0  0  0  0  0  0  0  0  0  0  0
  -30.0583   -0.6708   29.9096 C   0  0  0  0  0  0  0  0  0  0  0  0
  -30.5855    0.2499   30.5970 O   0  0  0  0  0  0  0  0  0  0  0  0
  -30.7183   -1.6756   29.5274 O   0  0  0  0  0  0  0  0  0  0  0  0
  -25.9984   -0.6891   27.6072 N   0  0  0  0  0  0  0  0  0  0  0  0
  -24.5966   -0.5151   27.5486 C   0  0  0  0  0  0  0  0  0  0  0  0
  -24.1346    0.0050   26.4190 N   0  0  0  0  0  0  0  0  0  0  0  0
  -23.9948    1.3906   26.3001 C   0  0  0  0  0  0  0  0  0  0  0  0
  -24.7933    2.3621   26.8123 C   0  0  0  0  0  0  0  0  0  0  0  0
  -24.4592    3.6565   26.9284 C   0  0  0  0  0  0  0  0  0  0  0  0
  -25.2537    4.6279   27.5106 C   0  0  0  0  0  0  0  0  0  0  0  0
  -26.4705    4.2734   28.0209 C   0  0  0  0  0  0  0  0  0  0  0  0
  -26.8869    2.9714   27.9593 C   0  0  0  0  0  0  0  0  0  0  0  0
  -26.0679    2.0412   27.4155 C   0  0  0  0  0  0  0  0  0  0  0  0
  -23.1167    1.7645   25.4275 O   0  0  0  0  0  0  0  0  0  0  0  0
  2 13  1  0
 13 14  2  0
 13 15  1  0
 17 18  1  0
 18 19  1  0
 19 20  1  0
 19 26  2  0
 20 21  2  0
 21 22  1  0
 22 23  2  0
 23 24  1  0
 24 25  2  0
 25 20  1  0
  1  2  2  0
  2  6  1  0
  6  5  2  0
  5  4  1  0
  3  1  1  0
  3  4  2  0
  4  7  1  0
 12 17  1  0
 17 16  2  0
 16  3  1  0
  7  8  2  0
  8  9  1  0
  9 10  2  0
 10 11  1  0
 11 12  2  0
 12  7  1  0
M  END

$$$$
