No_674-gen_results/8p0m/2024-11-27-11-27-31/
     RDKit          3D

  9  9  0  0  0  0  0  0  0  0999 V2000
  -28.0162   -0.8135   28.8779 C   0  0  0  0  0  0  0  0  0  0  0  0
  -27.0636   -0.1190   28.6079 C   0  0  0  0  0  0  0  0  0  0  0  0
  -26.9716    0.7139   27.5060 C   0  0  0  0  0  0  0  0  0  0  0  0
  -28.1053    0.7744   26.6421 C   0  0  0  0  0  0  0  0  0  0  0  0
  -29.2008    0.1044   27.0527 C   0  0  0  0  0  0  0  0  0  0  0  0
  -29.2096   -0.6029   28.1853 C   0  0  0  0  0  0  0  0  0  0  0  0
  -30.3077    0.2215   26.2218 N   0  0  0  0  0  0  0  0  0  0  0  0
  -31.0284    1.0864   26.0542 C   0  0  0  0  0  0  0  0  0  0  0  0
  -32.1395    1.0423   25.0789 C   0  0  0  0  0  0  0  0  0  0  0  0
  5  7  1  0
  7  8  2  3
  8  9  1  0
  1  2  2  0
  2  3  1  0
  3  4  2  0
  4  5  1  0
  5  6  2  0
  6  1  1  0
M  END

$$$$
