No_625-gen_results/8p0m/2024-11-27-11-27-31/
     RDKit          3D

 15 15  0  0  0  0  0  0  0  0999 V2000
  -28.0162   -0.8135   28.8779 C   0  0  0  0  0  0  0  0  0  0  0  0
  -27.0636   -0.1190   28.6079 C   0  0  0  0  0  0  0  0  0  0  0  0
  -26.8756    1.1325   28.9134 C   0  0  0  0  0  0  0  0  0  0  0  0
  -25.6883    1.9515   28.5672 C   0  0  0  0  0  0  0  0  0  0  0  0
  -24.6394    1.2834   27.8753 C   0  0  0  0  0  0  0  0  0  0  0  0
  -24.8068   -0.0513   27.6040 C   0  0  0  0  0  0  0  0  0  0  0  0
  -25.9019   -0.7670   27.9511 C   0  0  0  0  0  0  0  0  0  0  0  0
  -28.0678   -1.4475   30.2707 C   0  0  0  0  0  0  0  0  0  0  0  0
  -29.1199   -2.2760   30.6440 N   0  0  0  0  0  0  0  0  0  0  0  0
  -23.4420    1.9814   27.4751 C   0  0  0  0  0  0  0  0  0  0  0  0
  -22.3645    1.6522   27.5650 O   0  0  0  0  0  0  0  0  0  0  0  0
  -23.6987    3.2328   26.9935 O   0  0  0  0  0  0  0  0  0  0  0  0
  -29.8520   -2.7346   29.8867 C   0  0  0  0  0  0  0  0  0  0  0  0
  -30.2433   -2.1126   28.9384 F   0  0  0  0  0  0  0  0  0  0  0  0
  -29.5742   -4.1061   29.4417 O   0  0  0  0  0  0  0  0  0  0  0  0
  1  8  1  0
  8  9  1  0
  5 10  1  0
 10 11  2  0
 10 12  1  0
  9 13  2  3
 13 14  1  0
 13 15  1  0
  1  2  1  0
  2  3  2  0
  3  4  1  0
  4  5  2  0
  5  6  1  0
  6  7  2  0
  7  2  1  0
M  END

$$$$
