No_697-gen_results/8p0m/2024-11-27-11-27-31/
     RDKit          3D

 18 20  0  0  0  0  0  0  0  0999 V2000
  -28.0162   -0.8135   28.8779 C   0  0  0  0  0  0  0  0  0  0  0  0
  -27.0636   -0.1189   28.6079 C   0  0  0  0  0  0  0  0  0  0  0  0
  -25.7923   -0.4302   29.0761 C   0  0  0  0  0  0  0  0  0  0  0  0
  -25.5756   -1.5654   29.9363 C   0  0  0  0  0  0  0  0  0  0  0  0
  -26.7354   -2.3004   30.2173 C   0  0  0  0  0  0  0  0  0  0  0  0
  -27.9184   -1.9537   29.7629 C   0  0  0  0  0  0  0  0  0  0  0  0
  -26.8648    1.0550   27.7928 N   0  0  0  0  0  0  0  0  0  0  0  0
  -27.6916    1.5642   27.1523 C   0  0  0  0  0  0  0  0  0  0  0  0
  -27.4012    2.6461   26.2665 C   0  0  0  0  0  0  0  0  0  0  0  0
  -25.9831    2.8821   26.2513 C   0  0  0  0  0  0  0  0  0  0  0  0
  -25.5301    1.7195   27.3700 C   0  0  0  0  0  0  0  0  0  0  0  0
  -24.7920    2.2332   28.5794 C   0  0  0  0  0  0  0  0  0  0  0  0
  -23.5549    1.5804   28.8758 C   0  0  0  0  0  0  0  0  0  0  0  0
  -22.8784    0.8143   28.0165 C   0  0  0  0  0  0  0  0  0  0  0  0
  -21.6123    0.2699   28.3936 C   0  0  0  0  0  0  0  0  0  0  0  0
  -21.4126   -0.3098   29.6474 C   0  0  0  0  0  0  0  0  0  0  0  0
  -22.3788    0.2264   30.6456 C   0  0  0  0  0  0  0  0  0  0  0  0
  -23.3919    1.1782   30.3428 C   0  0  0  0  0  0  0  0  0  0  0  0
  2  7  1  0
  7  8  1  0
  8  9  2  0
  9 10  1  0
  7 11  1  0
 10 11  2  0
 11 12  1  0
 12 13  1  0
  1  2  2  0
  2  3  1  0
  3  4  2  0
  4  5  1  0
  5  6  2  0
  6  1  1  0
 13 14  2  0
 14 15  1  0
 15 16  2  0
 16 17  1  0
 17 18  2  0
 18 13  1  0
M  END

$$$$
