No_63-gen_results/8p0m/2024-11-27-11-27-31/
     RDKit          3D

 21 24  0  0  0  0  0  0  0  0999 V2000
  -28.0162   -0.8135   28.8779 C   0  0  0  0  0  0  0  0  0  0  0  0
  -27.0636   -0.1189   28.6079 C   0  0  0  0  0  0  0  0  0  0  0  0
  -25.7647   -0.3897   29.0360 C   0  0  0  0  0  0  0  0  0  0  0  0
  -25.5296   -1.5302   29.9014 C   0  0  0  0  0  0  0  0  0  0  0  0
  -26.6888   -2.2893   30.1810 C   0  0  0  0  0  0  0  0  0  0  0  0
  -27.8727   -1.9508   29.7373 C   0  0  0  0  0  0  0  0  0  0  0  0
  -24.5491    0.4100   28.7341 C   0  0  0  0  0  0  0  0  0  0  0  0
  -23.3309    0.0437   29.0569 C   0  0  0  0  0  0  0  0  0  0  0  0
  -22.1994    0.8236   28.7067 C   0  0  0  0  0  0  0  0  0  0  0  0
  -22.3657    1.8184   27.6957 C   0  0  0  0  0  0  0  0  0  0  0  0
  -24.6193    1.4577   27.7557 C   0  0  0  0  0  0  0  0  0  0  0  0
  -23.5641    2.1491   27.3161 C   0  0  0  0  0  0  0  0  0  0  0  0
  -29.0414   -2.7719   30.1634 C   0  0  0  0  0  0  0  0  0  0  0  0
  -30.2064   -2.2832   30.1924 N   0  0  0  0  0  0  0  0  0  0  0  0
  -28.8515   -3.9657   30.5618 O   0  0  0  0  0  0  0  0  0  0  0  0
  -31.3989   -3.0510   30.5655 C   0  0  0  0  0  0  0  0  0  0  0  0
  -32.4513   -2.7267   29.9233 C   0  0  0  0  0  0  0  0  0  0  0  0
  -32.3967   -1.7507   29.2462 C   0  0  0  0  0  0  0  0  0  0  0  0
  -31.4350   -0.8398   28.9075 C   0  0  0  0  0  0  0  0  0  0  0  0
  -30.3675   -1.2054   29.3438 C   0  0  0  0  0  0  0  0  0  0  0  0
  -29.2330   -0.5750   28.8781 N   0  0  0  0  0  0  0  0  0  0  0  0
  3  7  1  0
  6 13  1  0
 13 14  1  0
 13 15  2  0
 14 16  1  0
 16 17  1  0
 18 19  1  0
 14 20  1  0
  1 21  1  0
 20 21  1  0
 17 18  1  0
 19 20  1  0
  7  8  2  0
  8  9  1  0
  9 10  2  0
 10 12  1  0
 12 11  2  0
 11  7  1  0
  1  2  2  0
  2  3  1  0
  3  4  2  0
  4  5  1  0
  5  6  2  0
  6  1  1  0
M  END

$$$$
