No_633-gen_results/8p0m/2024-11-27-11-27-31/
     RDKit          3D

 32 33  0  0  0  0  0  0  0  0999 V2000
  -28.0162   -0.8135   28.8779 C   0  0  0  0  0  0  0  0  0  0  0  0
  -28.4690   -0.7850   29.8287 C   0  0  0  0  0  0  0  0  0  0  0  0
  -27.0871    0.2903   28.6377 C   0  0  0  0  0  0  0  0  0  0  0  0
  -26.8317    1.2487   29.5869 C   0  0  0  0  0  0  0  0  0  0  0  0
  -28.3914    0.0801   31.0065 C   0  0  0  0  0  0  0  0  0  0  0  0
  -27.4940    1.1521   30.7841 C   0  0  0  0  0  0  0  0  0  0  0  0
  -26.3172    0.3994   27.3653 C   0  0  0  0  0  0  0  0  0  0  0  0
  -24.9405    0.2550   27.5028 C   0  0  0  0  0  0  0  0  0  0  0  0
  -26.9129    0.5860   26.1397 C   0  0  0  0  0  0  0  0  0  0  0  0
  -28.2688    0.7168   25.9850 C   0  0  0  0  0  0  0  0  0  0  0  0
  -28.7657    0.7315   24.6860 C   0  0  0  0  0  0  0  0  0  0  0  0
  -30.1595    0.8701   24.4627 C   0  0  0  0  0  0  0  0  0  0  0  0
  -30.9938    0.9584   25.5406 C   0  0  0  0  0  0  0  0  0  0  0  0
  -30.5076    0.9507   26.8390 C   0  0  0  0  0  0  0  0  0  0  0  0
  -29.1995    0.8714   27.0780 C   0  0  0  0  0  0  0  0  0  0  0  0
  -26.0992    0.1327   25.0778 C   0  0  0  0  0  0  0  0  0  0  0  0
  -24.1006    1.2959   27.2322 C   0  0  0  0  0  0  0  0  0  0  0  0
  -22.7211    1.3001   27.7198 C   0  0  0  0  0  0  0  0  0  0  0  0
  -21.8518    2.3741   27.3800 C   0  0  0  0  0  0  0  0  0  0  0  0
  -24.4356    2.4689   26.4650 C   0  0  0  0  0  0  0  0  0  0  0  0
  -22.2616    0.1860   28.5502 C   0  0  0  0  0  0  0  0  0  0  0  0
  -31.5486    1.1372   27.9283 C   0  0  0  0  0  0  0  0  0  0  0  0
  -31.9972    0.0753   28.4179 O   0  0  0  0  0  0  0  0  0  0  0  0
  -31.4619    2.2398   28.6638 O   0  0  0  0  0  0  0  0  0  0  0  0
  -29.5598   -1.9271   30.2655 C   0  0  0  0  0  0  0  0  0  0  0  0
  -29.5489   -2.8997   29.8385 O   0  0  0  0  0  0  0  0  0  0  0  0
  -30.2747   -1.6522   31.3947 O   0  0  0  0  0  0  0  0  0  0  0  0
  -23.0428   -0.3891   29.5748 C   0  0  0  0  0  0  0  0  0  0  0  0
  -22.9737    0.1392   30.7954 C   0  0  0  0  0  0  0  0  0  0  0  0
  -23.7194   -0.4876   31.8827 C   0  0  0  0  0  0  0  0  0  0  0  0
  -24.6478   -1.5007   31.4215 C   0  0  0  0  0  0  0  0  0  0  0  0
  -24.6652   -2.0016   30.1858 C   0  0  0  0  0  0  0  0  0  0  0  0
  3  7  1  0
  7  8  1  0
  7  9  1  0
  9 10  1  0
  9 16  1  0
  8 17  1  0
 17 18  2  3
 18 19  1  0
 17 20  1  0
 18 21  1  0
 14 22  1  0
 22 23  2  0
 22 24  1  0
  2 25  1  0
 25 26  2  0
 25 27  1  0
 21 28  2  3
 28 29  1  0
 29 30  2  3
 30 31  1  0
 31 32  2  0
  1  2  2  0
  2  5  1  0
  5  6  2  0
  6  4  1  0
  4  3  2  0
  3  1  1  0
 10 11  2  0
 11 12  1  0
 12 13  2  0
 13 14  1  0
 14 15  2  0
 15 10  1  0
M  END

$$$$
