No_68-gen_results/8p0m/2024-11-27-11-27-31/
     RDKit          3D

 19 20  0  0  0  0  0  0  0  0999 V2000
  -28.0162   -0.8135   28.8779 C   0  0  0  0  0  0  0  0  0  0  0  0
  -27.0636   -0.1189   28.6079 C   0  0  0  0  0  0  0  0  0  0  0  0
  -26.9716    0.7139   27.5060 C   0  0  0  0  0  0  0  0  0  0  0  0
  -28.1053    0.7744   26.6421 C   0  0  0  0  0  0  0  0  0  0  0  0
  -29.2041    0.1179   27.0477 C   0  0  0  0  0  0  0  0  0  0  0  0
  -29.2127   -0.6088   28.1281 C   0  0  0  0  0  0  0  0  0  0  0  0
  -25.7106    1.4518   27.1380 C   0  0  0  0  0  0  0  0  0  0  0  0
  -24.6052    0.9253   27.6902 C   0  0  0  0  0  0  0  0  0  0  0  0
  -23.3087    1.6018   27.4923 C   0  0  0  0  0  0  0  0  0  0  0  0
  -23.2169    2.4959   26.4391 C   0  0  0  0  0  0  0  0  0  0  0  0
  -25.5554    2.4208   26.1832 C   0  0  0  0  0  0  0  0  0  0  0  0
  -24.3322    3.0724   25.9239 C   0  0  0  0  0  0  0  0  0  0  0  0
  -21.8988    0.9308   28.2218 Cl  0  0  0  0  0  0  0  0  0  0  0  0
  -30.5968    0.2792   26.0566 Cl  0  0  0  0  0  0  0  0  0  0  0  0
  -28.0749   -1.5848   30.0082 O   0  0  0  0  0  0  0  0  0  0  0  0
  -27.1185   -2.6049   30.1178 C   0  0  0  0  0  0  0  0  0  0  0  0
  -25.7993   -2.1627   30.1290 C   0  0  0  0  0  0  0  0  0  0  0  0
  -27.6116   -3.8908   30.1989 C   0  0  0  0  0  0  0  0  0  0  0  0
  -26.7896   -4.8494   30.0377 O   0  0  0  0  0  0  0  0  0  0  0  0
  3  7  1  0
  9 13  1  0
  5 14  1  0
  1 15  1  0
 15 16  1  0
 16 17  1  0
 16 18  1  0
 18 19  2  0
  7  8  2  0
  8  9  1  0
  9 10  2  0
 10 12  1  0
 12 11  2  0
 11  7  1  0
  1  2  2  0
  2  3  1  0
  3  4  2  0
  4  5  1  0
  5  6  2  0
  6  1  1  0
M  END

$$$$
