No_683-gen_results/8p0m/2024-11-27-11-27-31/
     RDKit          3D

 13 14  0  0  0  0  0  0  0  0999 V2000
  -28.0162   -0.8135   28.8779 C   0  0  0  0  0  0  0  0  0  0  0  0
  -27.0636   -0.1190   28.6079 C   0  0  0  0  0  0  0  0  0  0  0  0
  -25.7923   -0.4302   29.0761 C   0  0  0  0  0  0  0  0  0  0  0  0
  -25.5756   -1.5654   29.9363 C   0  0  0  0  0  0  0  0  0  0  0  0
  -26.7354   -2.3004   30.2173 C   0  0  0  0  0  0  0  0  0  0  0  0
  -27.9184   -1.9537   29.7629 C   0  0  0  0  0  0  0  0  0  0  0  0
  -29.4034   -2.9791   30.2597 Br  0  0  0  0  0  0  0  0  0  0  0  0
  -27.1046    1.1105   27.7589 C   0  0  0  0  0  0  0  0  0  0  0  0
  -27.8871    1.7214   27.5280 C   0  0  0  0  0  0  0  0  0  0  0  0
  -27.9194    2.9020   26.5518 C   0  0  0  0  0  0  0  0  0  0  0  0
  -26.7641    3.1913   25.8681 C   0  0  0  0  0  0  0  0  0  0  0  0
  -25.6145    2.4292   26.1293 C   0  0  0  0  0  0  0  0  0  0  0  0
  -25.6928    1.4142   27.0315 C   0  0  0  0  0  0  0  0  0  0  0  0
  6  7  1  0
  2  8  1  0
  1  2  2  0
  2  3  1  0
  3  4  2  0
  4  5  1  0
  5  6  2  0
  6  1  1  0
  8  9  2  0
  9 10  1  0
 10 11  2  0
 11 12  1  0
 12 13  2  0
 13  8  1  0
M  END

$$$$
