No_623-gen_results/8p0m/2024-11-27-11-27-31/
     RDKit          3D

 12 12  0  0  0  0  0  0  0  0999 V2000
  -28.0162   -0.8135   28.8779 C   0  0  0  0  0  0  0  0  0  0  0  0
  -28.4690   -0.7850   29.8287 C   0  0  0  0  0  0  0  0  0  0  0  0
  -27.0871    0.2903   28.6377 C   0  0  0  0  0  0  0  0  0  0  0  0
  -26.0238    0.3644   29.2526 C   0  0  0  0  0  0  0  0  0  0  0  0
  -27.5370   -0.6187   31.0883 C   0  0  0  0  0  0  0  0  0  0  0  0
  -26.3844    0.1834   30.8012 C   0  0  0  0  0  0  0  0  0  0  0  0
  -29.6227   -1.6698   30.2973 C   0  0  0  0  0  0  0  0  0  0  0  0
  -29.5721   -2.7555   30.5828 O   0  0  0  0  0  0  0  0  0  0  0  0
  -30.8223   -1.1582   29.8387 O   0  0  0  0  0  0  0  0  0  0  0  0
  -24.8648    1.3051   29.1004 C   0  0  0  0  0  0  0  0  0  0  0  0
  -23.7814    1.1024   29.4104 C   0  0  0  0  0  0  0  0  0  0  0  0
  -22.5235    1.7766   28.9694 C   0  0  0  0  0  0  0  0  0  0  0  0
  2  7  1  0
  7  8  2  0
  7  9  1  0
  4 10  1  0
 10 11  2  3
 11 12  1  0
  1  2  2  0
  2  5  1  0
  5  6  2  0
  6  4  1  0
  4  3  2  0
  3  1  1  0
M  END

$$$$
