No_687-gen_results/8p0m/2024-11-27-11-27-31/
     RDKit          3D

 20 21  0  0  0  0  0  0  0  0999 V2000
  -28.0162   -0.8135   28.8779 C   0  0  0  0  0  0  0  0  0  0  0  0
  -27.0636   -0.1189   28.6079 C   0  0  0  0  0  0  0  0  0  0  0  0
  -27.0010    0.6913   27.4910 C   0  0  0  0  0  0  0  0  0  0  0  0
  -28.1373    0.7363   26.6350 C   0  0  0  0  0  0  0  0  0  0  0  0
  -29.2360    0.0765   27.0690 C   0  0  0  0  0  0  0  0  0  0  0  0
  -29.2177   -0.6429   28.1747 C   0  0  0  0  0  0  0  0  0  0  0  0
  -30.3374    0.2228   26.0287 C   0  0  0  0  0  0  0  0  0  0  0  0
  -30.2239    0.4917   24.8847 N   0  0  0  0  0  0  0  0  0  0  0  0
  -31.3428   -0.5452   26.4142 O   0  0  0  0  0  0  0  0  0  0  0  0
  -25.7234   -0.2002   29.4440 C   0  0  0  0  0  0  0  0  0  0  0  0
  -25.6129   -0.5152   30.4283 O   0  0  0  0  0  0  0  0  0  0  0  0
  -24.5452   -0.1036   28.6083 O   0  0  0  0  0  0  0  0  0  0  0  0
  -23.3520   -0.4085   29.2903 C   0  0  0  0  0  0  0  0  0  0  0  0
  -22.2642    0.4635   29.0966 C   0  0  0  0  0  0  0  0  0  0  0  0
  -22.0496    0.7421   28.0338 F   0  0  0  0  0  0  0  0  0  0  0  0
  -21.1096   -0.1855   29.6754 F   0  0  0  0  0  0  0  0  0  0  0  0
  -22.4761    1.5415   29.8976 F   0  0  0  0  0  0  0  0  0  0  0  0
  -29.0771    1.2999   24.3653 C   0  0  0  0  0  0  0  0  0  0  0  0
  -27.9605    1.2685   25.3178 C   0  0  0  0  0  0  0  0  0  0  0  0
  -26.5245    2.0745   24.9250 Cl  0  0  0  0  0  0  0  0  0  0  0  0
  5  7  1  0
  7  8  1  0
  7  9  2  0
  2 10  1  0
 10 11  2  0
 10 12  1  0
 12 13  1  0
 13 14  1  0
 14 15  1  0
 14 16  1  0
 14 17  1  0
  4 19  1  0
 18 19  1  0
 19 20  1  0
 18  8  1  0
  1  2  2  0
  2  3  1  0
  3  4  2  0
  4  5  1  0
  5  6  2  0
  6  1  1  0
M  END

$$$$
