No_666-gen_results/8p0m/2024-11-27-11-27-31/
     RDKit          3D

 26 30  0  0  0  0  0  0  0  0999 V2000
  -28.1229   -1.3353   28.4874 O   0  0  0  0  0  0  0  0  0  0  0  0
  -27.4806   -0.4044   28.7094 C   0  0  0  0  0  0  0  0  0  0  0  0
  -26.3804   -0.0867   27.9394 C   0  0  0  0  0  0  0  0  0  0  0  0
  -27.6664    0.4468   29.8988 N   0  0  0  0  0  0  0  0  0  0  0  0
  -25.8048    1.1658   28.0750 C   0  0  0  0  0  0  0  0  0  0  0  0
  -24.6057    1.5261   27.3759 C   0  0  0  0  0  0  0  0  0  0  0  0
  -23.4091    1.8914   27.7481 C   0  0  0  0  0  0  0  0  0  0  0  0
  -22.3342    2.1155   26.8988 C   0  0  0  0  0  0  0  0  0  0  0  0
  -28.7126    0.1277   30.7489 C   0  0  0  0  0  0  0  0  0  0  0  0
  -24.7307    1.4110   25.8721 C   0  0  0  0  0  0  0  0  0  0  0  0
  -26.0066    1.0548   25.3425 C   0  0  0  0  0  0  0  0  0  0  0  0
  -22.5501    2.1696   25.5146 C   0  0  0  0  0  0  0  0  0  0  0  0
  -23.7206    1.7410   25.0269 C   0  0  0  0  0  0  0  0  0  0  0  0
  -27.1564    1.7327   25.4319 C   0  0  0  0  0  0  0  0  0  0  0  0
  -28.3286    1.3192   24.8538 C   0  0  0  0  0  0  0  0  0  0  0  0
  -29.5607    1.9491   25.1070 C   0  0  0  0  0  0  0  0  0  0  0  0
  -29.5913    3.0120   26.0441 C   0  0  0  0  0  0  0  0  0  0  0  0
  -28.4350    3.5230   26.6252 C   0  0  0  0  0  0  0  0  0  0  0  0
  -27.2407    2.8681   26.4090 C   0  0  0  0  0  0  0  0  0  0  0  0
  -25.9933   -0.1185   24.4937 C   0  0  0  0  0  0  0  0  0  0  0  0
  -25.2420    1.2692   29.6525 C   0  0  0  0  0  0  0  0  0  0  0  0
  -25.7028    0.5704   30.4257 C   0  0  0  0  0  0  0  0  0  0  0  0
  -26.4554    0.7032   30.5864 C   0  0  0  0  0  0  0  0  0  0  0  0
  -28.3168    0.1988   24.0095 C   0  0  0  0  0  0  0  0  0  0  0  0
  -27.1485   -0.4910   23.9565 N   0  0  0  0  0  0  0  0  0  0  0  0
  -26.7660    2.4115   28.0552 C   0  0  0  0  0  0  0  0  0  0  0  0
  1  2  2  0
  2  3  1  0
  2  4  1  0
  3  5  1  0
  5  6  1  0
  4  9  1  0
 10 11  1  0
  5 21  1  0
 21 22  2  0
  4 23  1  0
 22 23  1  0
  5 26  1  0
 19 26  1  0
 15 16  1  0
 16 17  2  0
 17 18  1  0
 18 19  2  0
 19 14  1  0
 11 14  2  0
 14 15  1  0
 15 24  2  0
 24 25  1  0
 25 20  2  0
 20 11  1  0
  6  7  2  0
  7  8  1  0
  8 12  2  0
 12 13  1  0
 13 10  2  0
 10  6  1  0
M  END

$$$$
