No_679-gen_results/8p0m/2024-11-27-11-27-31/
     RDKit          3D

 19 21  0  0  0  0  0  0  0  0999 V2000
  -28.0162   -0.8135   28.8779 C   0  0  0  0  0  0  0  0  0  0  0  0
  -28.4690   -0.7850   29.8287 C   0  0  0  0  0  0  0  0  0  0  0  0
  -26.5042   -0.7777   28.8766 C   0  0  0  0  0  0  0  0  0  0  0  0
  -25.6540   -0.6597   27.7191 C   0  0  0  0  0  0  0  0  0  0  0  0
  -27.9180   -0.9374   31.1824 C   0  0  0  0  0  0  0  0  0  0  0  0
  -26.5424   -0.9399   31.2606 C   0  0  0  0  0  0  0  0  0  0  0  0
  -25.7832   -0.8935   30.1201 C   0  0  0  0  0  0  0  0  0  0  0  0
  -25.9259    0.2819   26.7445 C   0  0  0  0  0  0  0  0  0  0  0  0
  -25.0234    0.4476   25.6774 C   0  0  0  0  0  0  0  0  0  0  0  0
  -27.0932    1.0563   26.7733 C   0  0  0  0  0  0  0  0  0  0  0  0
  -27.3811    1.8575   25.6360 C   0  0  0  0  0  0  0  0  0  0  0  0
  -28.3191    2.7988   25.8863 C   0  0  0  0  0  0  0  0  0  0  0  0
  -29.1327    2.8301   26.9755 C   0  0  0  0  0  0  0  0  0  0  0  0
  -28.8594    1.9838   28.0161 C   0  0  0  0  0  0  0  0  0  0  0  0
  -27.8228    1.2133   27.9949 C   0  0  0  0  0  0  0  0  0  0  0  0
  -27.4468    0.6489   29.1242 O   0  0  0  0  0  0  0  0  0  0  0  0
  -29.9774   -0.9379   30.0802 C   0  0  0  0  0  0  0  0  0  0  0  0
  -30.7581   -0.0790   29.9291 O   0  0  0  0  0  0  0  0  0  0  0  0
  -30.3554   -2.2000   30.2883 O   0  0  0  0  0  0  0  0  0  0  0  0
  3  4  1  0
  4  8  2  0
  8  9  1  0
  8 10  1  0
  1 16  1  0
 15 16  1  0
  2 17  1  0
 17 18  2  0
 17 19  1  0
  1  2  2  0
  2  5  1  0
  5  6  2  0
  6  7  1  0
  7  3  2  0
  3  1  1  0
 10 11  2  0
 11 12  1  0
 12 13  2  0
 13 14  1  0
 14 15  2  0
 15 10  1  0
M  END

$$$$
