No_655-gen_results/8p0m/2024-11-27-11-27-31/
     RDKit          3D

 13 14  0  0  0  0  0  0  0  0999 V2000
  -28.0162   -0.8135   28.8779 C   0  0  0  0  0  0  0  0  0  0  0  0
  -28.4690   -0.7850   29.8287 C   0  0  0  0  0  0  0  0  0  0  0  0
  -27.1356    0.2359   28.5352 C   0  0  0  0  0  0  0  0  0  0  0  0
  -26.8745    1.2825   29.3982 C   0  0  0  0  0  0  0  0  0  0  0  0
  -28.3613    0.1987   30.9244 C   0  0  0  0  0  0  0  0  0  0  0  0
  -27.5277    1.2234   30.6356 C   0  0  0  0  0  0  0  0  0  0  0  0
  -26.3879    0.2914   27.2334 C   0  0  0  0  0  0  0  0  0  0  0  0
  -25.5177    1.4105   27.0491 C   0  0  0  0  0  0  0  0  0  0  0  0
  -24.5258    1.4253   26.2645 C   0  0  0  0  0  0  0  0  0  0  0  0
  -23.5859    2.6511   26.2434 C   0  0  0  0  0  0  0  0  0  0  0  0
  -23.9579    3.7037   27.0741 C   0  0  0  0  0  0  0  0  0  0  0  0
  -25.5208    2.7012   27.8488 C   0  0  0  0  0  0  0  0  0  0  0  0
  -24.8762    3.7634   27.7247 C   0  0  0  0  0  0  0  0  0  0  0  0
  3  7  1  0
  7  8  1  0
  1  2  2  0
  2  5  1  0
  5  6  2  0
  6  4  1  0
  4  3  2  0
  3  1  1  0
  8  9  2  0
  9 10  1  0
 10 11  2  0
 11 13  1  0
 13 12  2  0
 12  8  1  0
M  END

$$$$
