No_638-gen_results/8p0m/2024-11-27-11-27-31/
     RDKit          3D

 23 24  0  0  0  0  0  0  0  0999 V2000
  -28.0162   -0.8135   28.8779 C   0  0  0  0  0  0  0  0  0  0  0  0
  -27.0636   -0.1190   28.6079 C   0  0  0  0  0  0  0  0  0  0  0  0
  -25.7923   -0.4302   29.0761 C   0  0  0  0  0  0  0  0  0  0  0  0
  -25.5756   -1.5654   29.9363 C   0  0  0  0  0  0  0  0  0  0  0  0
  -26.7354   -2.3004   30.2173 C   0  0  0  0  0  0  0  0  0  0  0  0
  -27.9184   -1.9537   29.7629 C   0  0  0  0  0  0  0  0  0  0  0  0
  -29.0001   -2.7012   30.1151 O   0  0  0  0  0  0  0  0  0  0  0  0
  -24.4133    0.1621   28.8546 C   0  0  0  0  0  0  0  0  0  0  0  0
  -24.3047    1.1944   27.9251 C   0  0  0  0  0  0  0  0  0  0  0  0
  -23.0019    1.7407   27.6775 C   0  0  0  0  0  0  0  0  0  0  0  0
  -21.8296    1.1834   28.2748 C   0  0  0  0  0  0  0  0  0  0  0  0
  -23.2062   -0.3474   29.3887 C   0  0  0  0  0  0  0  0  0  0  0  0
  -21.9451    0.2085   29.1175 C   0  0  0  0  0  0  0  0  0  0  0  0
  -30.1290   -2.1290   30.5787 C   0  0  0  0  0  0  0  0  0  0  0  0
  -31.2017   -2.7068   30.1150 C   0  0  0  0  0  0  0  0  0  0  0  0
  -31.9860   -2.1526   29.4564 O   0  0  0  0  0  0  0  0  0  0  0  0
  -31.4572   -4.0912   30.3640 N   0  0  0  0  0  0  0  0  0  0  0  0
  -32.4848   -4.8286   29.7598 C   0  0  0  0  0  0  0  0  0  0  0  0
  -32.2692   -6.1031   29.7388 C   0  0  0  0  0  0  0  0  0  0  0  0
  -32.7005   -6.9178   28.7956 C   0  0  0  0  0  0  0  0  0  0  0  0
  -32.3032   -6.9441   27.7273 C   0  0  0  0  0  0  0  0  0  0  0  0
  -30.9171   -6.3397   27.4971 C   0  0  0  0  0  0  0  0  0  0  0  0
  -30.5793   -5.3543   28.2558 C   0  0  0  0  0  0  0  0  0  0  0  0
  6  7  1  0
  3  8  1  0
  7 14  1  0
 14 15  1  0
 15 16  2  0
 15 17  1  0
 17 18  1  0
 18 19  2  3
 19 20  1  0
 20 21  2  3
 21 22  1  0
 22 23  2  0
  1  2  2  0
  2  3  1  0
  3  4  2  0
  4  5  1  0
  5  6  2  0
  6  1  1  0
  8  9  2  0
  9 10  1  0
 10 11  2  0
 11 13  1  0
 13 12  2  0
 12  8  1  0
M  END

$$$$
