No_608-gen_results/8p0m/2024-11-27-11-27-31/
     RDKit          3D

 35 38  0  0  0  0  0  0  0  0999 V2000
  -28.0162   -0.8135   28.8779 C   0  0  0  0  0  0  0  0  0  0  0  0
  -27.0636   -0.1189   28.6079 C   0  0  0  0  0  0  0  0  0  0  0  0
  -25.7923   -0.4302   29.0761 C   0  0  0  0  0  0  0  0  0  0  0  0
  -24.5456    0.3494   28.8225 C   0  0  0  0  0  0  0  0  0  0  0  0
  -23.2409    0.0217   29.3323 C   0  0  0  0  0  0  0  0  0  0  0  0
  -27.8820   -1.8995   29.8633 C   0  0  0  0  0  0  0  0  0  0  0  0
  -26.6706   -2.3272   30.3212 C   0  0  0  0  0  0  0  0  0  0  0  0
  -25.5433   -1.5852   29.9316 C   0  0  0  0  0  0  0  0  0  0  0  0
  -22.1884    0.8224   28.9928 C   0  0  0  0  0  0  0  0  0  0  0  0
  -22.1616    1.7773   28.0238 C   0  0  0  0  0  0  0  0  0  0  0  0
  -24.5484    1.3977   27.8309 C   0  0  0  0  0  0  0  0  0  0  0  0
  -23.3870    2.0761   27.4709 C   0  0  0  0  0  0  0  0  0  0  0  0
  -29.0677   -2.7194   30.2969 C   0  0  0  0  0  0  0  0  0  0  0  0
  -30.1571   -2.2270   30.2680 O   0  0  0  0  0  0  0  0  0  0  0  0
  -28.8265   -3.9620   30.7746 N   0  0  0  0  0  0  0  0  0  0  0  0
  -29.9054   -4.8491   31.1429 C   0  0  0  0  0  0  0  0  0  0  0  0
  -30.7202   -5.2483   30.1302 C   0  0  0  0  0  0  0  0  0  0  0  0
  -30.5669   -5.0700   28.9225 C   0  0  0  0  0  0  0  0  0  0  0  0
  -31.3133   -5.6207   27.8225 C   0  0  0  0  0  0  0  0  0  0  0  0
  -32.2689   -6.5659   28.1535 C   0  0  0  0  0  0  0  0  0  0  0  0
  -32.4301   -6.9118   29.4894 C   0  0  0  0  0  0  0  0  0  0  0  0
  -31.6513   -6.3643   30.4844 C   0  0  0  0  0  0  0  0  0  0  0  0
  -23.5161    3.0249   26.5347 F   0  0  0  0  0  0  0  0  0  0  0  0
  -29.9524   -5.1120   32.4033 O   0  0  0  0  0  0  0  0  0  0  0  0
  -33.0836   -7.1227   27.0800 C   0  0  0  0  0  0  0  0  0  0  0  0
  -32.6709   -8.0883   26.2966 C   0  0  0  0  0  0  0  0  0  0  0  0
  -31.4657   -8.6291   26.4762 C   0  0  0  0  0  0  0  0  0  0  0  0
  -30.8602   -9.4116   25.7875 C   0  0  0  0  0  0  0  0  0  0  0  0
  -31.3797   -9.7987   24.5019 C   0  0  0  0  0  0  0  0  0  0  0  0
  -32.5991   -9.2125   24.1584 C   0  0  0  0  0  0  0  0  0  0  0  0
  -33.1749   -8.3195   24.9853 C   0  0  0  0  0  0  0  0  0  0  0  0
  -34.4593   -6.6904   27.0623 C   0  0  0  0  0  0  0  0  0  0  0  0
  -34.8405   -5.4501   26.5983 C   0  0  0  0  0  0  0  0  0  0  0  0
  -34.0331   -4.3831   26.7021 C   0  0  0  0  0  0  0  0  0  0  0  0
  -34.3112   -3.0930   26.4146 C   0  0  0  0  0  0  0  0  0  0  0  0
  3  4  1  0
  6 13  1  0
 13 14  2  0
 13 15  1  0
 15 16  1  0
 16 17  1  0
 12 23  1  0
 16 24  2  0
 20 25  1  0
 25 26  1  0
 25 32  1  0
 32 33  1  0
 33 34  2  3
 34 35  1  0
 17 18  2  0
 18 19  1  0
 19 20  2  0
 20 21  1  0
 21 22  2  0
 22 17  1  0
  1  2  2  0
  2  3  1  0
  3  8  2  0
  8  7  1  0
  7  6  2  0
  6  1  1  0
  4  5  2  0
  5  9  1  0
  9 10  2  0
 10 12  1  0
 12 11  2  0
 11  4  1  0
 26 27  2  0
 27 28  1  0
 28 29  2  0
 29 30  1  0
 30 31  2  0
 31 26  1  0
M  END

$$$$
