No_693-gen_results/8p0m/2024-11-27-11-27-31/
     RDKit          3D

 15 15  0  0  0  0  0  0  0  0999 V2000
  -28.0162   -0.8135   28.8779 C   0  0  0  0  0  0  0  0  0  0  0  0
  -27.0636   -0.1189   28.6079 C   0  0  0  0  0  0  0  0  0  0  0  0
  -25.7923   -0.4302   29.0761 C   0  0  0  0  0  0  0  0  0  0  0  0
  -25.5681   -1.2411   29.7572 C   0  0  0  0  0  0  0  0  0  0  0  0
  -26.6114   -2.1840   30.2439 C   0  0  0  0  0  0  0  0  0  0  0  0
  -27.8191   -1.9189   29.8034 C   0  0  0  0  0  0  0  0  0  0  0  0
  -28.8528   -2.7193   30.2109 O   0  0  0  0  0  0  0  0  0  0  0  0
  -28.6374   -3.9987   30.5829 C   0  0  0  0  0  0  0  0  0  0  0  0
  -27.2289    1.1050   27.6813 C   0  0  0  0  0  0  0  0  0  0  0  0
  -26.8118    2.0558   27.5272 C   0  0  0  0  0  0  0  0  0  0  0  0
  -25.6650    2.4569   28.5238 C   0  0  0  0  0  0  0  0  0  0  0  0
  -25.6883    3.0283   29.6047 C   0  0  0  0  0  0  0  0  0  0  0  0
  -26.9122    3.6259   30.0514 C   0  0  0  0  0  0  0  0  0  0  0  0
  -26.7076    4.1161   31.4279 C   0  0  0  0  0  0  0  0  0  0  0  0
  -25.5829    4.0918   31.9868 N   0  0  0  0  0  0  0  0  0  0  0  0
  6  7  1  0
  7  8  1  0
  2  9  1  0
  9 10  2  3
 10 11  1  0
 11 12  2  3
 12 13  1  0
 13 14  1  0
 14 15  2  0
  1  2  2  0
  2  3  1  0
  3  4  2  0
  4  5  1  0
  5  6  2  0
  6  1  1  0
M  END

$$$$
