No_662-gen_results/8p0m/2024-11-27-11-27-31/
     RDKit          3D

 19 21  0  0  0  0  0  0  0  0999 V2000
  -28.0162   -0.8135   28.8779 C   0  0  0  0  0  0  0  0  0  0  0  0
  -28.4690   -0.7850   29.8287 C   0  0  0  0  0  0  0  0  0  0  0  0
  -26.5455   -0.8762   28.8500 C   0  0  0  0  0  0  0  0  0  0  0  0
  -25.6825   -0.7773   27.6829 C   0  0  0  0  0  0  0  0  0  0  0  0
  -27.9181   -1.0034   31.1877 C   0  0  0  0  0  0  0  0  0  0  0  0
  -26.5308   -1.0794   31.2463 C   0  0  0  0  0  0  0  0  0  0  0  0
  -25.7798   -1.0462   30.0905 C   0  0  0  0  0  0  0  0  0  0  0  0
  -25.2322    0.5793   27.3292 C   0  0  0  0  0  0  0  0  0  0  0  0
  -25.9027    1.5335   27.4253 C   0  0  0  0  0  0  0  0  0  0  0  0
  -25.3348    2.8671   27.0802 C   0  0  0  0  0  0  0  0  0  0  0  0
  -24.0033    2.9885   26.6466 C   0  0  0  0  0  0  0  0  0  0  0  0
  -23.2328    1.8380   26.6116 C   0  0  0  0  0  0  0  0  0  0  0  0
  -23.8065    0.5810   26.9916 C   0  0  0  0  0  0  0  0  0  0  0  0
  -24.3731   -1.1362   30.1670 C   0  0  0  0  0  0  0  0  0  0  0  0
  -23.6182   -2.1016   29.7855 C   0  0  0  0  0  0  0  0  0  0  0  0
  -23.7725   -0.5013   31.3861 C   0  0  0  0  0  0  0  0  0  0  0  0
  -22.3727   -0.5425   31.5498 C   0  0  0  0  0  0  0  0  0  0  0  0
  -22.2213   -2.0209   29.7923 N   0  0  0  0  0  0  0  0  0  0  0  0
  -21.6496   -1.2293   30.6663 C   0  0  0  0  0  0  0  0  0  0  0  0
  3  4  1  0
  4  8  1  0
  7 14  1  0
 14 15  2  0
 15 18  1  0
 18 19  2  0
 19 17  1  0
 17 16  2  0
 16 14  1  0
  8  9  2  0
  9 10  1  0
 10 11  2  0
 11 12  1  0
 12 13  2  0
 13  8  1  0
  1  2  2  0
  2  5  1  0
  5  6  2  0
  6  7  1  0
  7  3  2  0
  3  1  1  0
M  END

$$$$
