No_610-gen_results/8p0m/2024-11-27-11-27-31/
     RDKit          3D

  8  7  0  0  0  0  0  0  0  0999 V2000
  -28.0727   -1.2542   28.5316 F   0  0  0  0  0  0  0  0  0  0  0  0
  -27.0607   -0.6291   28.8721 C   0  0  0  0  0  0  0  0  0  0  0  0
  -26.4722   -0.5474   28.0086 F   0  0  0  0  0  0  0  0  0  0  0  0
  -27.3684    0.5937   29.4292 F   0  0  0  0  0  0  0  0  0  0  0  0
  -26.3676   -1.4349   30.0031 C   0  0  0  0  0  0  0  0  0  0  0  0
  -25.9249   -0.7123   30.9969 C   0  0  0  0  0  0  0  0  0  0  0  0
  -26.3631    0.5410   31.3549 C   0  0  0  0  0  0  0  0  0  0  0  0
  -25.8128    1.2582   32.5936 C   0  0  0  0  0  0  0  0  0  0  0  0
  1  2  1  0
  2  3  1  0
  2  4  1  0
  2  5  1  0
  5  6  2  3
  6  7  1  0
  7  8  1  0
M  END

$$$$
