No_699-gen_results/8p0m/2024-11-27-11-27-31/
     RDKit          3D

 17 18  0  0  0  0  0  0  0  0999 V2000
  -28.0162   -0.8135   28.8779 C   0  0  0  0  0  0  0  0  0  0  0  0
  -27.0636   -0.1190   28.6079 C   0  0  0  0  0  0  0  0  0  0  0  0
  -27.0010    0.6913   27.4910 C   0  0  0  0  0  0  0  0  0  0  0  0
  -28.1373    0.7363   26.6350 C   0  0  0  0  0  0  0  0  0  0  0  0
  -29.2360    0.0765   27.0690 C   0  0  0  0  0  0  0  0  0  0  0  0
  -29.2177   -0.6429   28.1747 C   0  0  0  0  0  0  0  0  0  0  0  0
  -30.4585    0.0647   26.4120 N   0  0  0  0  0  0  0  0  0  0  0  0
  -30.5457   -0.1345   25.1409 C   0  0  0  0  0  0  0  0  0  0  0  0
  -31.6851    0.2693   27.1043 C   0  0  0  0  0  0  0  0  0  0  0  0
  -25.8513   -0.3003   29.5642 C   0  0  0  0  0  0  0  0  0  0  0  0
  -25.0270    0.6864   29.8860 C   0  0  0  0  0  0  0  0  0  0  0  0
  -25.2835    1.4999   30.6367 C   0  0  0  0  0  0  0  0  0  0  0  0
  -24.9250    2.5885   30.9584 C   0  0  0  0  0  0  0  0  0  0  0  0
  -25.4973    3.4833   32.0289 C   0  0  0  0  0  0  0  0  0  0  0  0
  -26.5109    2.9587   32.7648 C   0  0  0  0  0  0  0  0  0  0  0  0
  -26.9562    1.7141   32.5041 C   0  0  0  0  0  0  0  0  0  0  0  0
  -26.4361    0.9976   31.5918 C   0  0  0  0  0  0  0  0  0  0  0  0
  5  7  1  0
  7  8  1  0
  7  9  1  0
  2 10  1  0
 10 11  1  0
 11 12  1  0
 12 13  2  0
 13 14  1  0
 14 15  2  0
 15 16  1  0
 16 17  2  0
 17 12  1  0
  1  2  2  0
  2  3  1  0
  3  4  2  0
  4  5  1  0
  5  6  2  0
  6  1  1  0
M  END

$$$$
