No_692-gen_results/8p0m/2024-11-27-11-27-31/
     RDKit          3D

 29 31  0  0  0  0  0  0  0  0999 V2000
  -28.0162   -0.8135   28.8779 C   0  0  0  0  0  0  0  0  0  0  0  0
  -27.0636   -0.1190   28.6079 C   0  0  0  0  0  0  0  0  0  0  0  0
  -26.9716    0.7139   27.5060 C   0  0  0  0  0  0  0  0  0  0  0  0
  -28.1053    0.7744   26.6421 C   0  0  0  0  0  0  0  0  0  0  0  0
  -29.2008    0.1044   27.0527 C   0  0  0  0  0  0  0  0  0  0  0  0
  -28.0219   -1.5899   30.0879 C   0  0  0  0  0  0  0  0  0  0  0  0
  -29.1640   -0.6394   28.1484 C   0  0  0  0  0  0  0  0  0  0  0  0
  -26.8578   -2.6211   30.6135 Cl  0  0  0  0  0  0  0  0  0  0  0  0
  -29.1484   -1.7311   30.8110 F   0  0  0  0  0  0  0  0  0  0  0  0
  -30.4868    0.1342   26.3393 C   0  0  0  0  0  0  0  0  0  0  0  0
  -30.5145    0.1084   25.1702 O   0  0  0  0  0  0  0  0  0  0  0  0
  -31.6362    0.0853   27.0186 N   0  0  0  0  0  0  0  0  0  0  0  0
  -31.8240    0.1547   28.3855 C   0  0  0  0  0  0  0  0  0  0  0  0
  -32.8249   -0.6942   28.8364 C   0  0  0  0  0  0  0  0  0  0  0  0
  -33.6861   -0.3434   29.3444 C   0  0  0  0  0  0  0  0  0  0  0  0
  -33.7281    0.9867   30.1192 C   0  0  0  0  0  0  0  0  0  0  0  0
  -32.6699    1.8406   29.7236 C   0  0  0  0  0  0  0  0  0  0  0  0
  -32.1606    1.7021   28.6565 C   0  0  0  0  0  0  0  0  0  0  0  0
  -32.7324   -0.5374   26.2688 C   0  0  0  0  0  0  0  0  0  0  0  0
  -32.7608    3.2612   30.4129 C   0  0  0  0  0  0  0  0  0  0  0  0
  -33.1870    3.5469   31.3826 O   0  0  0  0  0  0  0  0  0  0  0  0
  -32.0234    4.1674   29.6880 O   0  0  0  0  0  0  0  0  0  0  0  0
  -32.9089   -0.3470   25.1027 C   0  0  0  0  0  0  0  0  0  0  0  0
  -33.6608    0.7318   24.7535 C   0  0  0  0  0  0  0  0  0  0  0  0
  -33.8218    1.0738   23.3871 C   0  0  0  0  0  0  0  0  0  0  0  0
  -33.1060    0.2717   22.4560 C   0  0  0  0  0  0  0  0  0  0  0  0
  -32.3002   -0.7642   22.8036 C   0  0  0  0  0  0  0  0  0  0  0  0
  -32.2080   -1.0418   24.0974 C   0  0  0  0  0  0  0  0  0  0  0  0
  -33.5649   -1.3479   26.9175 O   0  0  0  0  0  0  0  0  0  0  0  0
  1  6  1  0
  6  8  1  0
  6  9  1  0
  5 10  1  0
 10 11  2  0
 10 12  1  0
 12 13  1  0
 12 19  1  0
 17 20  1  0
 20 21  2  0
 20 22  1  0
 19 23  1  0
 19 29  2  0
 13 14  2  0
 14 15  1  0
 15 16  2  0
 16 17  1  0
 17 18  2  0
 18 13  1  0
  1  2  2  0
  2  3  1  0
  3  4  2  0
  4  5  1  0
  5  7  2  0
  7  1  1  0
 23 24  2  0
 24 25  1  0
 25 26  2  0
 26 27  1  0
 27 28  2  0
 28 23  1  0
M  END

$$$$
