No_628-gen_results/8p0m/2024-11-27-11-27-31/
     RDKit          3D

 19 21  0  0  0  0  0  0  0  0999 V2000
  -28.0162   -0.8135   28.8779 C   0  0  0  0  0  0  0  0  0  0  0  0
  -27.0636   -0.1190   28.6079 C   0  0  0  0  0  0  0  0  0  0  0  0
  -25.7923   -0.4302   29.0761 C   0  0  0  0  0  0  0  0  0  0  0  0
  -25.5756   -1.5654   29.9363 C   0  0  0  0  0  0  0  0  0  0  0  0
  -26.7354   -2.3004   30.2173 C   0  0  0  0  0  0  0  0  0  0  0  0
  -27.9184   -1.9537   29.7629 C   0  0  0  0  0  0  0  0  0  0  0  0
  -27.1057    1.1023   27.7593 C   0  0  0  0  0  0  0  0  0  0  0  0
  -26.7157    2.2350   27.9945 C   0  0  0  0  0  0  0  0  0  0  0  0
  -26.0688    2.4770   29.3567 C   0  0  0  0  0  0  0  0  0  0  0  0
  -25.4405    3.7637   29.5605 C   0  0  0  0  0  0  0  0  0  0  0  0
  -25.5223    4.7219   28.6224 C   0  0  0  0  0  0  0  0  0  0  0  0
  -26.0122    4.4992   27.3532 C   0  0  0  0  0  0  0  0  0  0  0  0
  -26.5923    3.2654   27.0520 C   0  0  0  0  0  0  0  0  0  0  0  0
  -27.7989    0.8276   26.4673 C   0  0  0  0  0  0  0  0  0  0  0  0
  -27.1118    0.5846   25.3856 C   0  0  0  0  0  0  0  0  0  0  0  0
  -29.1042    1.3359   26.3413 C   0  0  0  0  0  0  0  0  0  0  0  0
  -29.8201    1.0543   25.2457 C   0  0  0  0  0  0  0  0  0  0  0  0
  -27.7823    0.2757   24.1891 C   0  0  0  0  0  0  0  0  0  0  0  0
  -29.1284    0.5786   24.0923 C   0  0  0  0  0  0  0  0  0  0  0  0
  2  7  1  0
  7 14  1  0
  7  8  1  0
  1  2  2  0
  2  3  1  0
  3  4  2  0
  4  5  1  0
  5  6  2  0
  6  1  1  0
 14 15  2  0
 15 18  1  0
 18 19  2  0
 19 17  1  0
 17 16  2  0
 16 14  1  0
  8  9  2  0
  9 10  1  0
 10 11  2  0
 11 12  1  0
 12 13  2  0
 13  8  1  0
M  END

$$$$
