No_69-gen_results/8p0m/2024-11-27-11-27-31/
     RDKit          3D

 15 17  0  0  0  0  0  0  0  0999 V2000
  -28.0162   -0.8135   28.8779 C   0  0  0  0  0  0  0  0  0  0  0  0
  -28.4690   -0.7850   29.8287 C   0  0  0  0  0  0  0  0  0  0  0  0
  -26.5042   -0.7777   28.8766 C   0  0  0  0  0  0  0  0  0  0  0  0
  -25.8103   -0.8531   30.1028 C   0  0  0  0  0  0  0  0  0  0  0  0
  -27.9906   -0.8916   31.2257 C   0  0  0  0  0  0  0  0  0  0  0  0
  -26.6042   -0.8676   31.2652 C   0  0  0  0  0  0  0  0  0  0  0  0
  -30.0739   -0.8360   29.8615 C   0  0  0  0  0  0  0  0  0  0  0  0
  -30.5608   -0.4417   28.9417 O   0  0  0  0  0  0  0  0  0  0  0  0
  -30.7486   -1.4028   30.9474 N   0  0  0  0  0  0  0  0  0  0  0  0
  -32.1750   -1.4682   30.8889 C   0  0  0  0  0  0  0  0  0  0  0  0
  -32.7835   -2.0405   31.4468 C   0  0  0  0  0  0  0  0  0  0  0  0
  -32.2174   -2.9224   32.4946 C   0  0  0  0  0  0  0  0  0  0  0  0
  -30.8035   -2.9801   32.6289 C   0  0  0  0  0  0  0  0  0  0  0  0
  -30.0563   -2.3022   31.7889 C   0  0  0  0  0  0  0  0  0  0  0  0
  -28.6359   -2.1198   32.0300 C   0  0  0  0  0  0  0  0  0  0  0  0
  2  7  1  0
  7  8  2  0
  7  9  1  0
  9 10  1  0
 11 12  1  0
  9 14  1  0
 13 14  1  0
  5 15  1  0
 14 15  1  0
 10 11  1  0
 12 13  1  0
  1  2  2  0
  2  5  1  0
  5  6  2  0
  6  4  1  0
  4  3  2  0
  3  1  1  0
M  END

$$$$
