No_603-gen_results/8p0m/2024-11-27-11-27-31/
     RDKit          3D

 35 37  0  0  0  0  0  0  0  0999 V2000
  -28.0162   -0.8135   28.8779 C   0  0  0  0  0  0  0  0  0  0  0  0
  -27.0636   -0.1189   28.6079 C   0  0  0  0  0  0  0  0  0  0  0  0
  -26.9287    1.1713   29.0083 C   0  0  0  0  0  0  0  0  0  0  0  0
  -25.7702    2.0341   28.6884 C   0  0  0  0  0  0  0  0  0  0  0  0
  -24.7141    1.4431   27.9188 C   0  0  0  0  0  0  0  0  0  0  0  0
  -24.8590    0.0783   27.5836 C   0  0  0  0  0  0  0  0  0  0  0  0
  -25.9647   -0.6606   27.9164 C   0  0  0  0  0  0  0  0  0  0  0  0
  -29.1778   -0.3051   28.9638 N   0  0  0  0  0  0  0  0  0  0  0  0
  -30.1765   -0.9070   29.7369 C   0  0  0  0  0  0  0  0  0  0  0  0
  -23.5156    2.1616   27.5794 C   0  0  0  0  0  0  0  0  0  0  0  0
  -23.3842    2.9011   26.8246 F   0  0  0  0  0  0  0  0  0  0  0  0
  -22.8331    2.5853   28.7474 F   0  0  0  0  0  0  0  0  0  0  0  0
  -22.4850    1.1082   27.2970 F   0  0  0  0  0  0  0  0  0  0  0  0
  -29.8394   -2.0644   30.4017 C   0  0  0  0  0  0  0  0  0  0  0  0
  -28.5333   -2.5615   30.4436 C   0  0  0  0  0  0  0  0  0  0  0  0
  -27.6050   -1.8571   29.8604 C   0  0  0  0  0  0  0  0  0  0  0  0
  -31.3789   -0.5315   29.6365 O   0  0  0  0  0  0  0  0  0  0  0  0
  -30.7943   -2.7495   31.1081 O   0  0  0  0  0  0  0  0  0  0  0  0
  -29.5221    0.8012   28.1620 C   0  0  0  0  0  0  0  0  0  0  0  0
  -29.3556    0.6744   26.8049 C   0  0  0  0  0  0  0  0  0  0  0  0
  -29.4182    1.7742   26.0234 C   0  0  0  0  0  0  0  0  0  0  0  0
  -29.8978    2.9984   26.5444 C   0  0  0  0  0  0  0  0  0  0  0  0
  -30.1914    3.1109   27.8952 C   0  0  0  0  0  0  0  0  0  0  0  0
  -29.9188    2.0732   28.7205 C   0  0  0  0  0  0  0  0  0  0  0  0
  -29.2087    1.6746   24.5531 C   0  0  0  0  0  0  0  0  0  0  0  0
  -27.9720    1.1330   24.2858 C   0  0  0  0  0  0  0  0  0  0  0  0
  -27.3004    0.3381   25.1476 C   0  0  0  0  0  0  0  0  0  0  0  0
  -26.0458   -0.2707   24.6545 C   0  0  0  0  0  0  0  0  0  0  0  0
  -25.6846    3.2949   29.0050 O   0  0  0  0  0  0  0  0  0  0  0  0
  -26.6781    4.2215   28.7617 C   0  0  0  0  0  0  0  0  0  0  0  0
  -26.3933    5.0211   27.6007 C   0  0  0  0  0  0  0  0  0  0  0  0
  -26.8278    5.1033   29.9973 C   0  0  0  0  0  0  0  0  0  0  0  0
  -26.8956    4.5718   31.1725 C   0  0  0  0  0  0  0  0  0  0  0  0
  -27.0190    5.3524   32.2239 C   0  0  0  0  0  0  0  0  0  0  0  0
  -27.0952    6.7253   32.2028 C   0  0  0  0  0  0  0  0  0  0  0  0
  1  2  1  0
  1  8  1  0
  8  9  1  0
  5 10  1  0
 10 11  1  0
 10 12  1  0
 10 13  1  0
  9 14  1  0
  1 16  1  0
 15 16  1  0
  9 17  2  0
 14 18  1  0
  8 19  1  0
 21 25  1  0
 25 26  2  3
 26 27  1  0
 27 28  1  0
  4 29  1  0
 29 30  1  0
 30 31  1  0
 30 32  1  0
 32 33  1  0
 33 34  2  3
 34 35  1  0
 15 14  1  0
 19 20  2  0
 20 21  1  0
 21 22  2  0
 22 23  1  0
 23 24  2  0
 24 19  1  0
  2  3  2  0
  3  4  1  0
  4  5  2  0
  5  6  1  0
  6  7  2  0
  7  2  1  0
M  END

$$$$
