No_649-gen_results/8p0m/2024-11-27-11-27-31/
     RDKit          3D

 12 12  0  0  0  0  0  0  0  0999 V2000
  -28.1493   -0.8198   28.9079 Cl  0  0  0  0  0  0  0  0  0  0  0  0
  -27.8339    0.4961   29.0598 C   0  0  0  0  0  0  0  0  0  0  0  0
  -27.8833    1.0376   30.1944 F   0  0  0  0  0  0  0  0  0  0  0  0
  -26.3797    0.7729   28.5385 C   0  0  0  0  0  0  0  0  0  0  0  0
  -28.6112    1.2493   28.2241 F   0  0  0  0  0  0  0  0  0  0  0  0
  -25.4126    0.2715   29.2941 C   0  0  0  0  0  0  0  0  0  0  0  0
  -24.2906   -0.4028   28.8650 C   0  0  0  0  0  0  0  0  0  0  0  0
  -23.2207   -0.8713   29.7578 C   0  0  0  0  0  0  0  0  0  0  0  0
  -23.5106   -0.7054   31.1052 C   0  0  0  0  0  0  0  0  0  0  0  0
  -24.6431   -0.0667   31.6368 C   0  0  0  0  0  0  0  0  0  0  0  0
  -25.5593    0.4080   30.7489 C   0  0  0  0  0  0  0  0  0  0  0  0
  -26.1390    2.1196   28.2954 F   0  0  0  0  0  0  0  0  0  0  0  0
  1  2  1  0
  2  3  1  0
  2  4  1  0
  2  5  1  0
  4 12  1  0
  4  6  1  0
  6  7  2  0
  7  8  1  0
  8  9  2  0
  9 10  1  0
 10 11  2  0
 11  6  1  0
M  END

$$$$
