No_690-gen_results/8p0m/2024-11-27-11-27-31/
     RDKit          3D

 22 21  0  0  0  0  0  0  0  0999 V2000
  -28.0162   -0.8135   28.8779 C   0  0  0  0  0  0  0  0  0  0  0  0
  -27.0636   -0.1189   28.6079 C   0  0  0  0  0  0  0  0  0  0  0  0
  -27.0425    0.2440   27.4277 F   0  0  0  0  0  0  0  0  0  0  0  0
  -28.4881   -0.4683   30.1200 O   0  0  0  0  0  0  0  0  0  0  0  0
  -26.8984    1.0614   29.3289 F   0  0  0  0  0  0  0  0  0  0  0  0
  -25.8530   -0.7809   28.8362 F   0  0  0  0  0  0  0  0  0  0  0  0
  -29.5838   -1.0199   30.7435 C   0  0  0  0  0  0  0  0  0  0  0  0
  -28.0958   -1.8005   29.0296 F   0  0  0  0  0  0  0  0  0  0  0  0
  -29.4821   -2.1124   31.0204 C   0  0  0  0  0  0  0  0  0  0  0  0
  -30.4306   -2.6891   31.7810 O   0  0  0  0  0  0  0  0  0  0  0  0
  -29.6908   -0.2006   31.9402 O   0  0  0  0  0  0  0  0  0  0  0  0
  -28.3705   -2.6923   31.9796 C   0  0  0  0  0  0  0  0  0  0  0  0
  -27.4354   -1.8505   32.0934 O   0  0  0  0  0  0  0  0  0  0  0  0
  -30.8883   -3.9695   31.4653 C   0  0  0  0  0  0  0  0  0  0  0  0
  -30.2891   -4.8355   30.8146 C   0  0  0  0  0  0  0  0  0  0  0  0
  -30.8312   -6.0999   30.4489 C   0  0  0  0  0  0  0  0  0  0  0  0
  -31.6700   -6.1461   29.4913 C   0  0  0  0  0  0  0  0  0  0  0  0
  -31.9784   -4.9964   28.7514 C   0  0  0  0  0  0  0  0  0  0  0  0
  -31.7712   -4.8068   27.7243 C   0  0  0  0  0  0  0  0  0  0  0  0
  -32.1748   -3.6885   26.8023 C   0  0  0  0  0  0  0  0  0  0  0  0
  -32.6515   -2.5652   27.4836 C   0  0  0  0  0  0  0  0  0  0  0  0
  -33.0247   -1.4152   26.8047 C   0  0  0  0  0  0  0  0  0  0  0  0
  1  2  1  0
  2  3  1  0
  1  4  1  0
  2  5  1  0
  2  6  1  0
  4  7  1  0
  1  8  1  0
  7  9  1  0
  9 10  1  0
  7 11  1  0
  9 12  1  0
 12 13  1  0
 10 14  1  0
 14 15  2  3
 15 16  1  0
 16 17  2  3
 17 18  1  0
 18 19  2  3
 19 20  1  0
 20 21  2  3
 21 22  1  0
M  END

$$$$
