No_686-gen_results/8p0m/2024-11-27-11-27-31/
     RDKit          3D

 15 17  0  0  0  0  0  0  0  0999 V2000
  -28.0162   -0.8135   28.8779 C   0  0  0  0  0  0  0  0  0  0  0  0
  -27.0636   -0.1189   28.6079 C   0  0  0  0  0  0  0  0  0  0  0  0
  -26.9849    0.5972   27.5218 N   0  0  0  0  0  0  0  0  0  0  0  0
  -27.9606   -1.5421   30.1660 C   0  0  0  0  0  0  0  0  0  0  0  0
  -26.7813   -1.6198   30.8836 C   0  0  0  0  0  0  0  0  0  0  0  0
  -25.6460   -0.9698   30.4630 C   0  0  0  0  0  0  0  0  0  0  0  0
  -25.7563   -0.1767   29.2863 C   0  0  0  0  0  0  0  0  0  0  0  0
  -27.9271    1.1434   26.9162 C   0  0  0  0  0  0  0  0  0  0  0  0
  -27.7702    1.7507   25.6134 C   0  0  0  0  0  0  0  0  0  0  0  0
  -25.7314    0.7066   26.7126 C   0  0  0  0  0  0  0  0  0  0  0  0
  -25.5014    1.2429   25.5135 C   0  0  0  0  0  0  0  0  0  0  0  0
  -26.6005    1.8107   24.9204 C   0  0  0  0  0  0  0  0  0  0  0  0
  -24.5881    0.0940   27.3343 N   0  0  0  0  0  0  0  0  0  0  0  0
  -24.5374   -0.0250   28.5964 C   0  0  0  0  0  0  0  0  0  0  0  0
  -23.3797   -0.2694   29.0874 O   0  0  0  0  0  0  0  0  0  0  0  0
  2  3  1  0
  3  8  1  0
  3 10  1  0
  9 12  1  0
 11 12  1  0
 10 13  1  0
  7 14  1  0
 13 14  1  0
 14 15  2  0
  8  9  1  0
 11 10  1  0
  1  2  2  0
  2  7  1  0
  7  6  2  0
  6  5  1  0
  5  4  2  0
  4  1  1  0
M  END

$$$$
