No_637-gen_results/8p0m/2024-11-27-11-27-31/
     RDKit          3D

 28 31  0  0  0  0  0  0  0  0999 V2000
  -28.0162   -0.8135   28.8779 C   0  0  0  0  0  0  0  0  0  0  0  0
  -28.4690   -0.7850   29.8287 C   0  0  0  0  0  0  0  0  0  0  0  0
  -27.0871    0.2903   28.6377 C   0  0  0  0  0  0  0  0  0  0  0  0
  -26.8317    1.2487   29.5869 C   0  0  0  0  0  0  0  0  0  0  0  0
  -28.3914    0.0801   31.0065 C   0  0  0  0  0  0  0  0  0  0  0  0
  -27.4940    1.1521   30.7841 C   0  0  0  0  0  0  0  0  0  0  0  0
  -26.3172    0.3994   27.3653 C   0  0  0  0  0  0  0  0  0  0  0  0
  -24.9405    0.2550   27.5028 C   0  0  0  0  0  0  0  0  0  0  0  0
  -26.9129    0.5860   26.1397 C   0  0  0  0  0  0  0  0  0  0  0  0
  -26.1769    0.4192   24.9937 C   0  0  0  0  0  0  0  0  0  0  0  0
  -24.1017    0.5240   26.3568 C   0  0  0  0  0  0  0  0  0  0  0  0
  -24.7643    0.5306   25.0844 C   0  0  0  0  0  0  0  0  0  0  0  0
  -28.3662    0.4705   26.0088 C   0  0  0  0  0  0  0  0  0  0  0  0
  -28.9404    0.4290   24.7732 C   0  0  0  0  0  0  0  0  0  0  0  0
  -30.2917    0.4687   24.7332 C   0  0  0  0  0  0  0  0  0  0  0  0
  -31.1125    0.4713   25.7895 C   0  0  0  0  0  0  0  0  0  0  0  0
  -30.5315    0.5823   27.0707 C   0  0  0  0  0  0  0  0  0  0  0  0
  -29.1774    0.6655   27.1769 C   0  0  0  0  0  0  0  0  0  0  0  0
  -31.4726    0.7274   28.2513 C   0  0  0  0  0  0  0  0  0  0  0  0
  -32.5044    1.5371   28.2354 C   0  0  0  0  0  0  0  0  0  0  0  0
  -33.3060    1.6664   29.3961 C   0  0  0  0  0  0  0  0  0  0  0  0
  -34.3636    2.5677   29.4834 C   0  0  0  0  0  0  0  0  0  0  0  0
  -34.6813    3.2468   28.3206 C   0  0  0  0  0  0  0  0  0  0  0  0
  -33.9404    3.1451   27.1678 C   0  0  0  0  0  0  0  0  0  0  0  0
  -32.8607    2.3802   27.1399 C   0  0  0  0  0  0  0  0  0  0  0  0
  -29.5968   -1.8008   30.3552 C   0  0  0  0  0  0  0  0  0  0  0  0
  -30.5925   -1.4225   30.8406 O   0  0  0  0  0  0  0  0  0  0  0  0
  -29.2826   -2.9983   30.0817 O   0  0  0  0  0  0  0  0  0  0  0  0
  3  7  1  0
  9 13  1  0
 17 19  1  0
  2 26  1  0
 26 27  2  0
 26 28  1  0
 19 20  1  0
 13 14  2  0
 14 15  1  0
 15 16  2  0
 16 17  1  0
 17 18  2  0
 18 13  1  0
  7  8  2  0
  8 11  1  0
 11 12  2  0
 12 10  1  0
 10  9  2  0
  9  7  1  0
  1  2  2  0
  2  5  1  0
  5  6  2  0
  6  4  1  0
  4  3  2  0
  3  1  1  0
 20 21  2  0
 21 22  1  0
 22 23  2  0
 23 24  1  0
 24 25  2  0
 25 20  1  0
M  END

$$$$
