No_645-gen_results/8p0m/2024-11-27-11-27-31/
     RDKit          3D

 20 22  0  0  0  0  0  0  0  0999 V2000
  -28.0162   -0.8135   28.8779 C   0  0  0  0  0  0  0  0  0  0  0  0
  -27.0636   -0.1189   28.6079 C   0  0  0  0  0  0  0  0  0  0  0  0
  -26.9716    0.7139   27.5060 C   0  0  0  0  0  0  0  0  0  0  0  0
  -28.1053    0.7744   26.6421 C   0  0  0  0  0  0  0  0  0  0  0  0
  -29.2008    0.1044   27.0527 C   0  0  0  0  0  0  0  0  0  0  0  0
  -29.2096   -0.6029   28.1853 C   0  0  0  0  0  0  0  0  0  0  0  0
  -30.3077    0.2215   26.2218 N   0  0  0  0  0  0  0  0  0  0  0  0
  -31.3611   -0.4042   26.5033 C   0  0  0  0  0  0  0  0  0  0  0  0
  -32.0247   -1.1252   25.5256 C   0  0  0  0  0  0  0  0  0  0  0  0
  -30.1961    0.8193   24.9593 C   0  0  0  0  0  0  0  0  0  0  0  0
  -30.9883    0.3393   23.8714 C   0  0  0  0  0  0  0  0  0  0  0  0
  -32.0289   -0.5586   24.2454 C   0  0  0  0  0  0  0  0  0  0  0  0
  -25.6646    1.3961   27.1261 C   0  0  0  0  0  0  0  0  0  0  0  0
  -24.5245    0.7208   27.3158 C   0  0  0  0  0  0  0  0  0  0  0  0
  -23.2675    1.5091   27.0768 C   0  0  0  0  0  0  0  0  0  0  0  0
  -22.0196    1.1862   27.6393 C   0  0  0  0  0  0  0  0  0  0  0  0
  -21.9778    0.0437   28.4799 C   0  0  0  0  0  0  0  0  0  0  0  0
  -23.1844   -0.6956   28.7533 C   0  0  0  0  0  0  0  0  0  0  0  0
  -24.3883   -0.2960   28.2892 C   0  0  0  0  0  0  0  0  0  0  0  0
  -25.8318    2.5640   26.2925 C   0  0  0  0  0  0  0  0  0  0  0  0
  5  7  1  0
  7  8  1  0
  7 10  1  0
  9 12  1  0
 11 12  1  0
  3 13  1  0
 13 20  1  0
 13 14  1  0
  8  9  1  0
 11 10  1  0
  1  2  2  0
  2  3  1  0
  3  4  2  0
  4  5  1  0
  5  6  2  0
  6  1  1  0
 14 15  2  0
 15 16  1  0
 16 17  2  0
 17 18  1  0
 18 19  2  0
 19 14  1  0
M  END

$$$$
