No_604-gen_results/8p0m/2024-11-27-11-27-31/
     RDKit          3D

 27 28  0  0  0  0  0  0  0  0999 V2000
  -28.0162   -0.8135   28.8779 C   0  0  0  0  0  0  0  0  0  0  0  0
  -28.4690   -0.7850   29.8287 C   0  0  0  0  0  0  0  0  0  0  0  0
  -26.5455   -0.8762   28.8500 C   0  0  0  0  0  0  0  0  0  0  0  0
  -25.8041   -1.0324   30.0571 C   0  0  0  0  0  0  0  0  0  0  0  0
  -27.9437   -0.9869   31.2075 C   0  0  0  0  0  0  0  0  0  0  0  0
  -26.5825   -1.0386   31.2231 C   0  0  0  0  0  0  0  0  0  0  0  0
  -29.9086   -0.7397   29.8642 F   0  0  0  0  0  0  0  0  0  0  0  0
  -24.3767   -1.0979   30.0689 C   0  0  0  0  0  0  0  0  0  0  0  0
  -23.6966    0.1795   30.0897 C   0  0  0  0  0  0  0  0  0  0  0  0
  -24.0007    1.2615   30.5957 C   0  0  0  0  0  0  0  0  0  0  0  0
  -25.2667    1.3513   31.3074 C   0  0  0  0  0  0  0  0  0  0  0  0
  -25.4940    2.7451   31.8434 C   0  0  0  0  0  0  0  0  0  0  0  0
  -24.7449    3.7595   31.4053 C   0  0  0  0  0  0  0  0  0  0  0  0
  -23.6654    3.5921   30.6230 C   0  0  0  0  0  0  0  0  0  0  0  0
  -23.2649    2.4356   30.2311 C   0  0  0  0  0  0  0  0  0  0  0  0
  -22.3526   -0.0048   29.2986 C   0  0  0  0  0  0  0  0  0  0  0  0
  -25.7358   -0.7376   27.6018 C   0  0  0  0  0  0  0  0  0  0  0  0
  -22.0316    0.5163   28.3078 O   0  0  0  0  0  0  0  0  0  0  0  0
  -21.4865   -0.8874   29.8427 O   0  0  0  0  0  0  0  0  0  0  0  0
  -25.0785    5.1242   32.0744 C   0  0  0  0  0  0  0  0  0  0  0  0
  -25.1931    6.0340   31.6579 O   0  0  0  0  0  0  0  0  0  0  0  0
  -25.1439    4.9845   33.4952 O   0  0  0  0  0  0  0  0  0  0  0  0
  -24.7740   -1.3051   27.4183 F   0  0  0  0  0  0  0  0  0  0  0  0
  -26.2502    0.0390   26.7192 F   0  0  0  0  0  0  0  0  0  0  0  0
  -25.3897    7.2566   32.2558 C   0  0  0  0  0  0  0  0  0  0  0  0
  -25.4901    8.3447   31.5440 C   0  0  0  0  0  0  0  0  0  0  0  0
  -25.6824    9.3979   32.0327 N   0  0  0  0  0  0  0  0  0  0  0  0
  2  7  1  0
  4  8  1  0
  8  9  1  0
  9 16  1  0
  3 17  1  0
 16 18  2  0
 16 19  1  0
 13 20  1  0
 20 21  1  0
 20 22  2  0
 17 23  1  0
 17 24  1  0
 21 25  1  0
 25 26  1  0
 26 27  2  0
  9 10  1  0
  1  2  2  0
  2  5  1  0
  5  6  2  0
  6  4  1  0
  4  3  2  0
  3  1  1  0
 10 11  2  0
 11 12  1  0
 12 13  2  0
 13 14  1  0
 14 15  2  0
 15 10  1  0
M  END

$$$$
