No_677-gen_results/8p0m/2024-11-27-11-27-31/
     RDKit          3D

 24 27  0  0  0  0  0  0  0  0999 V2000
  -28.0162   -0.8135   28.8779 C   0  0  0  0  0  0  0  0  0  0  0  0
  -27.0636   -0.1189   28.6079 C   0  0  0  0  0  0  0  0  0  0  0  0
  -25.7923   -0.4302   29.0761 C   0  0  0  0  0  0  0  0  0  0  0  0
  -24.5456    0.3494   28.8225 C   0  0  0  0  0  0  0  0  0  0  0  0
  -24.6586    1.4196   27.8878 C   0  0  0  0  0  0  0  0  0  0  0  0
  -25.9471    1.6811   27.3792 C   0  0  0  0  0  0  0  0  0  0  0  0
  -27.0439    0.9739   27.6871 C   0  0  0  0  0  0  0  0  0  0  0  0
  -28.0241   -1.6475   30.1262 C   0  0  0  0  0  0  0  0  0  0  0  0
  -26.7278   -2.0846   30.5807 C   0  0  0  0  0  0  0  0  0  0  0  0
  -25.5915   -1.4064   30.1489 C   0  0  0  0  0  0  0  0  0  0  0  0
  -23.4497    2.1789   27.5290 C   0  0  0  0  0  0  0  0  0  0  0  0
  -22.2631    1.7552   27.9330 N   0  0  0  0  0  0  0  0  0  0  0  0
  -22.1341    0.7201   28.7998 C   0  0  0  0  0  0  0  0  0  0  0  0
  -23.2386   -0.0598   29.2048 C   0  0  0  0  0  0  0  0  0  0  0  0
  -28.3377    1.3154   27.0221 C   0  0  0  0  0  0  0  0  0  0  0  0
  -28.8396    0.9200   26.2293 C   0  0  0  0  0  0  0  0  0  0  0  0
  -28.2166   -0.1648   25.3779 C   0  0  0  0  0  0  0  0  0  0  0  0
  -28.3851   -0.0411   24.1570 C   0  0  0  0  0  0  0  0  0  0  0  0
  -29.5683    0.5947   23.5883 C   0  0  0  0  0  0  0  0  0  0  0  0
  -30.3018    1.4875   24.3413 C   0  0  0  0  0  0  0  0  0  0  0  0
  -29.8798    1.6929   25.5932 C   0  0  0  0  0  0  0  0  0  0  0  0
  -29.1285    2.0917   28.1059 C   0  0  0  0  0  0  0  0  0  0  0  0
  -29.7424    2.9397   28.1432 F   0  0  0  0  0  0  0  0  0  0  0  0
  -28.9562    1.5061   29.4036 F   0  0  0  0  0  0  0  0  0  0  0  0
  7 15  1  0
 15 22  1  0
 22 23  1  0
 22 24  1  0
 15 16  1  0
  3  4  1  0
  5  6  1  0
  6  7  2  0
  7  2  1  0
  4  5  2  0
  5 11  1  0
 11 12  2  0
 12 13  1  0
 13 14  2  0
 14  4  1  0
  1  2  2  0
  2  3  1  0
  3 10  2  0
 10  9  1  0
  9  8  2  0
  8  1  1  0
 16 17  2  0
 17 18  1  0
 18 19  2  0
 19 20  1  0
 20 21  2  0
 21 16  1  0
M  END

$$$$
