No_665-gen_results/8p0m/2024-11-27-11-27-31/
     RDKit          3D

  7  7  0  0  0  0  0  0  0  0999 V2000
  -28.1493   -0.8198   28.9079 Cl  0  0  0  0  0  0  0  0  0  0  0  0
  -28.5324   -0.0471   29.7727 C   0  0  0  0  0  0  0  0  0  0  0  0
  -29.7006    0.0350   30.2420 C   0  0  0  0  0  0  0  0  0  0  0  0
  -29.9734    0.9562   31.2858 C   0  0  0  0  0  0  0  0  0  0  0  0
  -28.9949    1.8091   31.7721 C   0  0  0  0  0  0  0  0  0  0  0  0
  -27.6990    1.7396   31.2908 C   0  0  0  0  0  0  0  0  0  0  0  0
  -27.4377    0.8150   30.3666 C   0  0  0  0  0  0  0  0  0  0  0  0
  1  2  1  0
  2  3  2  0
  3  4  1  0
  4  5  2  0
  5  6  1  0
  6  7  2  0
  7  2  1  0
M  END

$$$$
