No_607-gen_results/8p0m/2024-11-27-11-27-31/
     RDKit          3D

 17 18  0  0  0  0  0  0  0  0999 V2000
  -28.0162   -0.8135   28.8779 C   0  0  0  0  0  0  0  0  0  0  0  0
  -28.4690   -0.7850   29.8287 C   0  0  0  0  0  0  0  0  0  0  0  0
  -26.5455   -0.8762   28.8500 C   0  0  0  0  0  0  0  0  0  0  0  0
  -25.8041   -1.0324   30.0571 C   0  0  0  0  0  0  0  0  0  0  0  0
  -27.9437   -0.9869   31.2075 C   0  0  0  0  0  0  0  0  0  0  0  0
  -26.5825   -1.0386   31.2231 C   0  0  0  0  0  0  0  0  0  0  0  0
  -30.2809   -0.7232   29.8834 Cl  0  0  0  0  0  0  0  0  0  0  0  0
  -24.5158   -1.0896   30.0531 F   0  0  0  0  0  0  0  0  0  0  0  0
  -25.7699   -0.8494   27.7133 O   0  0  0  0  0  0  0  0  0  0  0  0
  -25.1354    0.3464   27.3715 C   0  0  0  0  0  0  0  0  0  0  0  0
  -23.9277    0.6288   27.8772 C   0  0  0  0  0  0  0  0  0  0  0  0
  -23.2215    1.7830   27.3844 C   0  0  0  0  0  0  0  0  0  0  0  0
  -22.0249    2.2658   28.0134 C   0  0  0  0  0  0  0  0  0  0  0  0
  -25.6255    1.0807   26.2888 C   0  0  0  0  0  0  0  0  0  0  0  0
  -23.7335    2.5400   26.3370 C   0  0  0  0  0  0  0  0  0  0  0  0
  -26.8140    0.6095   25.7339 C   0  0  0  0  0  0  0  0  0  0  0  0
  -24.9638    2.1588   25.7876 C   0  0  0  0  0  0  0  0  0  0  0  0
  2  7  1  0
  4  8  1  0
  3  9  1  0
  9 10  1  0
 14 16  1  0
 13 12  1  0
 10 11  2  0
 11 12  1  0
 12 15  2  0
 15 17  1  0
 17 14  2  0
 14 10  1  0
  1  2  2  0
  2  5  1  0
  5  6  2  0
  6  4  1  0
  4  3  2  0
  3  1  1  0
M  END

$$$$
