No_660-gen_results/8p0m/2024-11-27-11-27-31/
     RDKit          3D

 14 14  0  0  0  0  0  0  0  0999 V2000
  -28.0162   -0.8135   28.8779 C   0  0  0  0  0  0  0  0  0  0  0  0
  -27.0636   -0.1189   28.6079 C   0  0  0  0  0  0  0  0  0  0  0  0
  -25.7647   -0.3897   29.0360 C   0  0  0  0  0  0  0  0  0  0  0  0
  -25.5296   -1.5302   29.9014 C   0  0  0  0  0  0  0  0  0  0  0  0
  -26.6577   -2.2915   30.2035 C   0  0  0  0  0  0  0  0  0  0  0  0
  -27.8548   -1.9555   29.7630 C   0  0  0  0  0  0  0  0  0  0  0  0
  -24.8044    0.5237   28.7994 O   0  0  0  0  0  0  0  0  0  0  0  0
  -23.7522    0.5127   28.5232 C   0  0  0  0  0  0  0  0  0  0  0  0
  -22.7898    1.3755   29.0647 C   0  0  0  0  0  0  0  0  0  0  0  0
  -28.9952   -2.8434   30.1897 C   0  0  0  0  0  0  0  0  0  0  0  0
  -30.0428   -2.5368   30.0556 O   0  0  0  0  0  0  0  0  0  0  0  0
  -28.6336   -3.8665   31.0924 N   0  0  0  0  0  0  0  0  0  0  0  0
  -21.3769    1.2527   28.5974 C   0  0  0  0  0  0  0  0  0  0  0  0
  -29.6022   -4.8167   31.6117 C   0  0  0  0  0  0  0  0  0  0  0  0
  3  7  1  0
  7  8  1  0
  8  9  2  3
  6 10  1  0
 10 11  2  0
 10 12  1  0
  9 13  1  0
 12 14  1  0
  1  2  2  0
  2  3  1  0
  3  4  2  0
  4  5  1  0
  5  6  2  0
  6  1  1  0
M  END

$$$$
