No_620-gen_results/8p0m/2024-11-27-11-27-31/
     RDKit          3D

 32 34  0  0  0  0  0  0  0  0999 V2000
  -28.0162   -0.8135   28.8779 C   0  0  0  0  0  0  0  0  0  0  0  0
  -27.0636   -0.1190   28.6079 C   0  0  0  0  0  0  0  0  0  0  0  0
  -25.7923   -0.4302   29.0761 C   0  0  0  0  0  0  0  0  0  0  0  0
  -25.5756   -1.5654   29.9363 C   0  0  0  0  0  0  0  0  0  0  0  0
  -26.7354   -2.3004   30.2173 C   0  0  0  0  0  0  0  0  0  0  0  0
  -27.9184   -1.9537   29.7629 C   0  0  0  0  0  0  0  0  0  0  0  0
  -29.0001   -2.7012   30.1151 O   0  0  0  0  0  0  0  0  0  0  0  0
  -24.5290    0.3490   28.7998 C   0  0  0  0  0  0  0  0  0  0  0  0
  -24.4808    1.2113   27.7998 C   0  0  0  0  0  0  0  0  0  0  0  0
  -23.4518    1.8595   27.4552 C   0  0  0  0  0  0  0  0  0  0  0  0
  -22.1631    1.6473   28.0100 C   0  0  0  0  0  0  0  0  0  0  0  0
  -23.3137    0.0274   29.4409 C   0  0  0  0  0  0  0  0  0  0  0  0
  -22.1009    0.7427   29.0466 C   0  0  0  0  0  0  0  0  0  0  0  0
  -28.8810   -3.9652   30.6067 C   0  0  0  0  0  0  0  0  0  0  0  0
  -30.0929   -4.6996   30.6556 C   0  0  0  0  0  0  0  0  0  0  0  0
  -30.7819   -4.8266   29.7129 O   0  0  0  0  0  0  0  0  0  0  0  0
  -32.1326   -4.8412   29.8150 C   0  0  0  0  0  0  0  0  0  0  0  0
  -32.5947   -5.9476   29.6496 C   0  0  0  0  0  0  0  0  0  0  0  0
  -32.5932   -6.4753   28.6151 C   0  0  0  0  0  0  0  0  0  0  0  0
  -31.5989   -6.7425   28.0010 C   0  0  0  0  0  0  0  0  0  0  0  0
  -31.3899   -6.5532   26.5905 C   0  0  0  0  0  0  0  0  0  0  0  0
  -32.4966   -6.7070   25.7778 C   0  0  0  0  0  0  0  0  0  0  0  0
  -33.7631   -6.5760   26.3429 C   0  0  0  0  0  0  0  0  0  0  0  0
  -33.8187   -6.5308   27.7402 C   0  0  0  0  0  0  0  0  0  0  0  0
  -32.7645   -3.5466   29.9414 C   0  0  0  0  0  0  0  0  0  0  0  0
  -32.4800   -2.5786   30.2980 C   0  0  0  0  0  0  0  0  0  0  0  0
  -33.1778   -1.3041   30.3857 C   0  0  0  0  0  0  0  0  0  0  0  0
  -32.6498   -0.1038   30.9535 C   0  0  0  0  0  0  0  0  0  0  0  0
  -31.2828   -0.1300   31.3247 C   0  0  0  0  0  0  0  0  0  0  0  0
  -30.6692    1.0832   31.6929 C   0  0  0  0  0  0  0  0  0  0  0  0
  -30.9018    2.0805   31.1104 C   0  0  0  0  0  0  0  0  0  0  0  0
  -32.2624    2.3476   30.6202 C   0  0  0  0  0  0  0  0  0  0  0  0
  6  7  1  0
  3  8  1  0
  7 14  1  0
 14 15  1  0
 15 16  1  0
 16 17  1  0
 17 18  1  0
 17 25  1  0
 25 26  2  3
 26 27  1  0
 27 28  2  3
 28 29  1  0
 29 30  1  0
 30 31  2  3
 31 32  1  0
 18 19  1  0
  1  2  2  0
  2  3  1  0
  3  4  2  0
  4  5  1  0
  5  6  2  0
  6  1  1  0
 19 20  2  0
 20 21  1  0
 21 22  2  0
 22 23  1  0
 23 24  2  0
 24 19  1  0
  8  9  2  0
  9 10  1  0
 10 11  2  0
 11 13  1  0
 13 12  2  0
 12  8  1  0
M  END

$$$$
