No_630-gen_results/8p0m/2024-11-27-11-27-31/
     RDKit          3D

 28 31  0  0  0  0  0  0  0  0999 V2000
  -28.0162   -0.8135   28.8779 C   0  0  0  0  0  0  0  0  0  0  0  0
  -28.4690   -0.7850   29.8287 C   0  0  0  0  0  0  0  0  0  0  0  0
  -28.1816    0.4277   28.1134 C   0  0  0  0  0  0  0  0  0  0  0  0
  -28.9841    1.4155   28.5154 C   0  0  0  0  0  0  0  0  0  0  0  0
  -29.3802    0.1384   30.4612 C   0  0  0  0  0  0  0  0  0  0  0  0
  -29.9932   -0.0234   31.7370 C   0  0  0  0  0  0  0  0  0  0  0  0
  -29.5370    1.2619   29.7119 C   0  0  0  0  0  0  0  0  0  0  0  0
  -27.4649    0.4160   26.8316 N   0  0  0  0  0  0  0  0  0  0  0  0
  -26.0752    0.3720   26.7239 C   0  0  0  0  0  0  0  0  0  0  0  0
  -25.4854    0.6395   25.4827 C   0  0  0  0  0  0  0  0  0  0  0  0
  -28.1454    0.4851   25.6614 C   0  0  0  0  0  0  0  0  0  0  0  0
  -27.5665    0.5616   24.3910 C   0  0  0  0  0  0  0  0  0  0  0  0
  -26.1828    0.5960   24.3029 C   0  0  0  0  0  0  0  0  0  0  0  0
  -30.0116   -1.0711   32.3564 C   0  0  0  0  0  0  0  0  0  0  0  0
  -30.6438   -1.2454   33.6257 C   0  0  0  0  0  0  0  0  0  0  0  0
  -31.2920   -0.1443   34.1916 C   0  0  0  0  0  0  0  0  0  0  0  0
  -31.2815    1.0187   33.5132 C   0  0  0  0  0  0  0  0  0  0  0  0
  -30.6470    1.1487   32.3239 C   0  0  0  0  0  0  0  0  0  0  0  0
  -29.5057    0.4017   25.6481 N   0  0  0  0  0  0  0  0  0  0  0  0
  -30.2722    0.8349   26.1746 C   0  0  0  0  0  0  0  0  0  0  0  0
  -31.7204    0.4735   25.9856 C   0  0  0  0  0  0  0  0  0  0  0  0
  -29.9887   -0.3971   24.4120 C   0  0  0  0  0  0  0  0  0  0  0  0
  -31.2355   -0.8362   24.3361 C   0  0  0  0  0  0  0  0  0  0  0  0
  -32.1543   -0.3442   25.0829 C   0  0  0  0  0  0  0  0  0  0  0  0
  -31.9637    2.2237   34.0983 C   0  0  0  0  0  0  0  0  0  0  0  0
  -32.1455    2.4697   35.1935 N   0  0  0  0  0  0  0  0  0  0  0  0
  -32.4585    3.1860   33.0423 C   0  0  0  0  0  0  0  0  0  0  0  0
  -33.2043    4.3092   33.4870 C   0  0  0  0  0  0  0  0  0  0  0  0
  5  6  1  0
  3  8  1  0
  8  9  1  0
  8 11  1  0
 10 13  1  0
 12 13  1  0
 11 19  1  0
 19 20  1  0
 19 22  1  0
 21 24  1  0
 23 24  1  0
 17 25  1  0
 25 26  2  0
 25 27  1  0
 27 28  1  0
  9 10  1  0
 12 11  1  0
 20 21  1  0
 23 22  1  0
  6 14  2  0
 14 15  1  0
 15 16  2  0
 16 17  1  0
 17 18  2  0
 18  6  1  0
  1  2  2  0
  2  5  1  0
  5  7  2  0
  7  4  1  0
  4  3  2  0
  3  1  1  0
M  END

$$$$
