No_622-gen_results/8p0m/2024-11-27-11-27-31/
     RDKit          3D

 20 20  0  0  0  0  0  0  0  0999 V2000
  -28.1229   -1.3353   28.4874 O   0  0  0  0  0  0  0  0  0  0  0  0
  -27.4806   -0.4044   28.7094 C   0  0  0  0  0  0  0  0  0  0  0  0
  -26.3804   -0.0867   27.9394 C   0  0  0  0  0  0  0  0  0  0  0  0
  -27.8993    0.6459   29.6321 N   0  0  0  0  0  0  0  0  0  0  0  0
  -25.1243   -0.5319   28.3714 C   0  0  0  0  0  0  0  0  0  0  0  0
  -23.8577    0.0996   27.9068 C   0  0  0  0  0  0  0  0  0  0  0  0
  -22.6193   -0.1855   28.5847 C   0  0  0  0  0  0  0  0  0  0  0  0
  -21.4811    0.5762   28.2508 C   0  0  0  0  0  0  0  0  0  0  0  0
  -21.6099    1.6267   27.3457 C   0  0  0  0  0  0  0  0  0  0  0  0
  -23.8608    1.2884   27.1449 C   0  0  0  0  0  0  0  0  0  0  0  0
  -22.7569    2.0279   26.8951 C   0  0  0  0  0  0  0  0  0  0  0  0
  -29.0253    0.4191   30.4905 C   0  0  0  0  0  0  0  0  0  0  0  0
  -26.5864   -0.4142   26.4244 C   0  0  0  0  0  0  0  0  0  0  0  0
  -27.1081    1.8120   29.8242 C   0  0  0  0  0  0  0  0  0  0  0  0
  -27.5204    2.9049   29.5951 C   0  0  0  0  0  0  0  0  0  0  0  0
  -28.4649    3.4462   29.2509 C   0  0  0  0  0  0  0  0  0  0  0  0
  -28.7555    4.8803   29.0096 C   0  0  0  0  0  0  0  0  0  0  0  0
  -29.8872    5.3997   28.5282 C   0  0  0  0  0  0  0  0  0  0  0  0
  -27.4675    5.7154   29.0098 C   0  0  0  0  0  0  0  0  0  0  0  0
  -26.2675    5.1817   29.4051 C   0  0  0  0  0  0  0  0  0  0  0  0
  1  2  2  0
  2  3  1  0
  2  4  1  0
  3  5  2  3
  5  6  1  0
  4 12  1  0
  3 13  1  0
  4 14  1  0
 14 15  2  3
 15 16  1  0
 16 17  1  0
 17 18  2  0
 17 19  1  0
 19 20  2  0
  6  7  2  0
  7  8  1  0
  8  9  2  0
  9 11  1  0
 11 10  2  0
 10  6  1  0
M  END

$$$$
