No_605-gen_results/8p0m/2024-11-27-11-27-31/
     RDKit          3D

 35 38  0  0  0  0  0  0  0  0999 V2000
  -28.0162   -0.8135   28.8779 C   0  0  0  0  0  0  0  0  0  0  0  0
  -28.4690   -0.7850   29.8287 C   0  0  0  0  0  0  0  0  0  0  0  0
  -26.5042   -0.7777   28.8766 C   0  0  0  0  0  0  0  0  0  0  0  0
  -25.8103   -0.8531   30.1028 C   0  0  0  0  0  0  0  0  0  0  0  0
  -27.9906   -0.8916   31.2257 C   0  0  0  0  0  0  0  0  0  0  0  0
  -26.6042   -0.8676   31.2652 C   0  0  0  0  0  0  0  0  0  0  0  0
  -30.0739   -0.8360   29.8615 C   0  0  0  0  0  0  0  0  0  0  0  0
  -30.6529   -1.7943   30.2676 N   0  0  0  0  0  0  0  0  0  0  0  0
  -30.7371    0.2483   29.2293 C   0  0  0  0  0  0  0  0  0  0  0  0
  -32.1111    0.1346   29.0743 C   0  0  0  0  0  0  0  0  0  0  0  0
  -30.0488   -2.9275   30.8435 C   0  0  0  0  0  0  0  0  0  0  0  0
  -30.3605   -4.1857   30.3975 C   0  0  0  0  0  0  0  0  0  0  0  0
  -30.5407   -4.3875   29.3019 N   0  0  0  0  0  0  0  0  0  0  0  0
  -30.0632    1.4256   28.7458 C   0  0  0  0  0  0  0  0  0  0  0  0
  -30.6821    2.2538   27.8564 C   0  0  0  0  0  0  0  0  0  0  0  0
  -32.7724    1.0985   28.2670 C   0  0  0  0  0  0  0  0  0  0  0  0
  -32.0782    2.1749   27.7643 C   0  0  0  0  0  0  0  0  0  0  0  0
  -31.5114   -5.3463   28.8905 C   0  0  0  0  0  0  0  0  0  0  0  0
  -31.7554   -5.4691   27.5081 C   0  0  0  0  0  0  0  0  0  0  0  0
  -29.9016   -5.1501   31.1682 O   0  0  0  0  0  0  0  0  0  0  0  0
  -32.5205   -6.5352   26.9826 C   0  0  0  0  0  0  0  0  0  0  0  0
  -33.0463   -7.4694   27.8601 C   0  0  0  0  0  0  0  0  0  0  0  0
  -32.7360   -7.3556   29.2231 C   0  0  0  0  0  0  0  0  0  0  0  0
  -31.9319   -6.3477   29.7068 C   0  0  0  0  0  0  0  0  0  0  0  0
  -29.7972   -2.7509   32.1769 O   0  0  0  0  0  0  0  0  0  0  0  0
  -25.6828   -0.6452   27.6571 C   0  0  0  0  0  0  0  0  0  0  0  0
  -25.2926    0.5947   27.3071 N   0  0  0  0  0  0  0  0  0  0  0  0
  -25.5350    1.1067   26.1282 C   0  0  0  0  0  0  0  0  0  0  0  0
  -24.4410    1.3998   28.1201 C   0  0  0  0  0  0  0  0  0  0  0  0
  -23.6851    1.0098   29.0389 C   0  0  0  0  0  0  0  0  0  0  0  0
  -24.1219    2.6438   27.4734 C   0  0  0  0  0  0  0  0  0  0  0  0
  -24.6863    3.0781   26.7440 N   0  0  0  0  0  0  0  0  0  0  0  0
  -25.3872    2.3879   25.8003 C   0  0  0  0  0  0  0  0  0  0  0  0
  -22.5120    0.5063   29.4988 C   0  0  0  0  0  0  0  0  0  0  0  0
  -24.2318    1.6866   30.4933 C   0  0  0  0  0  0  0  0  0  0  0  0
  2  7  1  0
  7  8  2  3
  7  9  1  0
  8 11  1  0
 11 12  1  0
 12 13  1  0
 13 18  1  0
 12 20  2  0
 11 25  2  0
  3 26  1  0
 26 27  1  0
 27 28  1  0
 27 29  1  0
 29 30  1  0
 29 31  1  0
 31 32  1  0
 28 33  1  0
 32 33  1  0
 30 34  1  0
 30 35  1  0
 18 19  2  0
 19 21  1  0
 21 22  2  0
 22 23  1  0
 23 24  2  0
 24 18  1  0
  9 10  2  0
 10 16  1  0
 16 17  2  0
 17 15  1  0
 15 14  2  0
 14  9  1  0
  1  2  2  0
  2  5  1  0
  5  6  2  0
  6  4  1  0
  4  3  2  0
  3  1  1  0
M  END

$$$$
