No_654-gen_results/8p0m/2024-11-27-11-27-31/
     RDKit          3D

 20 21  0  0  0  0  0  0  0  0999 V2000
  -28.0162   -0.8135   28.8779 C   0  0  0  0  0  0  0  0  0  0  0  0
  -28.4690   -0.7850   29.8287 C   0  0  0  0  0  0  0  0  0  0  0  0
  -26.5455   -0.8762   28.8500 C   0  0  0  0  0  0  0  0  0  0  0  0
  -25.6825   -0.7773   27.6829 C   0  0  0  0  0  0  0  0  0  0  0  0
  -29.9909   -0.7300   29.9814 C   0  0  0  0  0  0  0  0  0  0  0  0
  -24.9912    0.3245   27.5402 C   0  0  0  0  0  0  0  0  0  0  0  0
  -24.2614    0.8822   28.6689 C   0  0  0  0  0  0  0  0  0  0  0  0
  -23.3307    1.9276   28.4608 C   0  0  0  0  0  0  0  0  0  0  0  0
  -23.2029    2.3990   27.1247 C   0  0  0  0  0  0  0  0  0  0  0  0
  -23.8625    1.8396   26.0329 C   0  0  0  0  0  0  0  0  0  0  0  0
  -24.7464    0.8228   26.2440 C   0  0  0  0  0  0  0  0  0  0  0  0
  -30.6314   -0.4819   28.7981 C   0  0  0  0  0  0  0  0  0  0  0  0
  -29.9418   -0.2711   27.6682 C   0  0  0  0  0  0  0  0  0  0  0  0
  -28.5995   -0.3011   27.6566 C   0  0  0  0  0  0  0  0  0  0  0  0
  -30.6046    0.0953   26.3812 C   0  0  0  0  0  0  0  0  0  0  0  0
  -31.5922   -0.2469   26.1261 O   0  0  0  0  0  0  0  0  0  0  0  0
  -29.8741    0.7436   25.4864 O   0  0  0  0  0  0  0  0  0  0  0  0
  -25.8842   -1.3633   30.0986 C   0  0  0  0  0  0  0  0  0  0  0  0
  -25.7793   -2.6075   30.0933 F   0  0  0  0  0  0  0  0  0  0  0  0
  -24.5776   -0.9551   30.1906 F   0  0  0  0  0  0  0  0  0  0  0  0
  1  3  1  0
  3  4  1  0
 13 15  1  0
 15 16  2  0
 15 17  1  0
  3 18  1  0
 18 19  1  0
 18 20  1  0
  4  6  1  0
  6  7  2  0
  7  8  1  0
  8  9  2  0
  9 10  1  0
 10 11  2  0
 11  6  1  0
  1  2  2  0
  2  5  1  0
  5 12  2  0
 12 13  1  0
 13 14  2  0
 14  1  1  0
M  END

$$$$
