No_673-gen_results/8p0m/2024-11-27-11-27-31/
     RDKit          3D

 35 38  0  0  0  0  0  0  0  0999 V2000
  -28.0162   -0.8135   28.8779 C   0  0  0  0  0  0  0  0  0  0  0  0
  -27.0636   -0.1189   28.6079 C   0  0  0  0  0  0  0  0  0  0  0  0
  -27.0010    0.6913   27.4910 C   0  0  0  0  0  0  0  0  0  0  0  0
  -25.8548    1.4825   27.0830 C   0  0  0  0  0  0  0  0  0  0  0  0
  -25.8227    2.3296   25.9941 C   0  0  0  0  0  0  0  0  0  0  0  0
  -29.2749   -0.4841   28.3563 C   0  0  0  0  0  0  0  0  0  0  0  0
  -29.3535    0.3686   27.3239 C   0  0  0  0  0  0  0  0  0  0  0  0
  -28.2055    1.0839   26.8491 C   0  0  0  0  0  0  0  0  0  0  0  0
  -24.5577    1.1970   27.7447 C   0  0  0  0  0  0  0  0  0  0  0  0
  -24.2685    0.3669   28.7287 C   0  0  0  0  0  0  0  0  0  0  0  0
  -22.9382    0.3272   29.2347 C   0  0  0  0  0  0  0  0  0  0  0  0
  -21.9561    0.9671   28.5526 C   0  0  0  0  0  0  0  0  0  0  0  0
  -23.4131    1.9609   27.1873 C   0  0  0  0  0  0  0  0  0  0  0  0
  -22.1448    1.8774   27.6485 C   0  0  0  0  0  0  0  0  0  0  0  0
  -30.5911    0.6511   26.8974 F   0  0  0  0  0  0  0  0  0  0  0  0
  -23.7103    2.8674   26.0735 C   0  0  0  0  0  0  0  0  0  0  0  0
  -24.8997    3.0514   25.5557 C   0  0  0  0  0  0  0  0  0  0  0  0
  -27.9744   -1.8171   30.0434 C   0  0  0  0  0  0  0  0  0  0  0  0
  -27.0883   -2.6872   30.0224 O   0  0  0  0  0  0  0  0  0  0  0  0
  -28.8313   -1.7963   30.9396 O   0  0  0  0  0  0  0  0  0  0  0  0
  -28.3424    1.9035   25.9257 F   0  0  0  0  0  0  0  0  0  0  0  0
  -22.6550   -0.5552   30.2555 O   0  0  0  0  0  0  0  0  0  0  0  0
  -23.3097   -0.4244   31.4455 C   0  0  0  0  0  0  0  0  0  0  0  0
  -24.3874    0.3376   31.5732 C   0  0  0  0  0  0  0  0  0  0  0  0
  -25.2721    0.1320   32.7171 C   0  0  0  0  0  0  0  0  0  0  0  0
  -24.8885   -0.8128   33.6289 C   0  0  0  0  0  0  0  0  0  0  0  0
  -25.8301   -0.9000   34.7466 C   0  0  0  0  0  0  0  0  0  0  0  0
  -27.0384   -0.2054   34.8243 C   0  0  0  0  0  0  0  0  0  0  0  0
  -27.3867    0.7014   33.8186 C   0  0  0  0  0  0  0  0  0  0  0  0
  -26.5189    0.8828   32.7711 C   0  0  0  0  0  0  0  0  0  0  0  0
  -26.8948    1.8312   31.7315 C   0  0  0  0  0  0  0  0  0  0  0  0
  -27.0298    3.1983   32.1268 C   0  0  0  0  0  0  0  0  0  0  0  0
  -27.2357    4.1589   31.1751 C   0  0  0  0  0  0  0  0  0  0  0  0
  -27.2599    3.9717   30.1394 C   0  0  0  0  0  0  0  0  0  0  0  0
  -27.0966    2.6348   29.5075 C   0  0  0  0  0  0  0  0  0  0  0  0
  3  4  1  0
  7 15  1  0
  1 18  1  0
 18 19  2  0
 18 20  1  0
  8 21  1  0
 11 22  1  0
 22 23  1  0
 23 24  1  0
 30 31  1  0
 31 32  1  0
 32 33  2  3
 33 34  1  0
 34 35  2  0
 24 25  1  0
  4  5  2  0
  5 17  1  0
 17 16  2  0
 16 13  1  0
  9  4  1  0
 25 26  2  0
 26 27  1  0
 27 28  2  0
 28 29  1  0
 29 30  2  0
 30 25  1  0
  1  2  2  0
  2  3  1  0
  3  8  2  0
  8  7  1  0
  7  6  2  0
  6  1  1  0
  9 10  2  0
 10 11  1  0
 11 12  2  0
 12 14  1  0
 14 13  2  0
 13  9  1  0
M  END

$$$$
