No_661-gen_results/8p0m/2024-11-27-11-27-31/
     RDKit          3D

 27 29  0  0  0  0  0  0  0  0999 V2000
  -28.0162   -0.8135   28.8779 C   0  0  0  0  0  0  0  0  0  0  0  0
  -27.0636   -0.1189   28.6079 C   0  0  0  0  0  0  0  0  0  0  0  0
  -25.7923   -0.4302   29.0761 C   0  0  0  0  0  0  0  0  0  0  0  0
  -24.5456    0.3494   28.8225 C   0  0  0  0  0  0  0  0  0  0  0  0
  -23.2409    0.0217   29.3323 C   0  0  0  0  0  0  0  0  0  0  0  0
  -27.8820   -1.8995   29.8633 C   0  0  0  0  0  0  0  0  0  0  0  0
  -26.6706   -2.3272   30.3212 C   0  0  0  0  0  0  0  0  0  0  0  0
  -25.5433   -1.5852   29.9316 C   0  0  0  0  0  0  0  0  0  0  0  0
  -22.1884    0.8224   28.9928 C   0  0  0  0  0  0  0  0  0  0  0  0
  -22.1616    1.7773   28.0238 C   0  0  0  0  0  0  0  0  0  0  0  0
  -24.6435    1.5915   28.0732 C   0  0  0  0  0  0  0  0  0  0  0  0
  -23.4377    2.1983   27.6129 C   0  0  0  0  0  0  0  0  0  0  0  0
  -29.0602   -2.7269   30.2907 C   0  0  0  0  0  0  0  0  0  0  0  0
  -30.1546   -2.2367   30.2771 O   0  0  0  0  0  0  0  0  0  0  0  0
  -28.8304   -3.9004   30.7649 O   0  0  0  0  0  0  0  0  0  0  0  0
  -23.5755    3.2403   26.7488 O   0  0  0  0  0  0  0  0  0  0  0  0
  -24.8976    3.3422   26.1028 C   0  0  0  0  0  0  0  0  0  0  0  0
  -25.8148    4.2186   26.7420 C   0  0  0  0  0  0  0  0  0  0  0  0
  -26.4048    3.9992   27.7467 C   0  0  0  0  0  0  0  0  0  0  0  0
  -27.2008    4.9421   28.4845 C   0  0  0  0  0  0  0  0  0  0  0  0
  -27.7835    4.7694   29.7630 C   0  0  0  0  0  0  0  0  0  0  0  0
  -27.6174    3.4742   30.3256 C   0  0  0  0  0  0  0  0  0  0  0  0
  -26.7839    2.5592   29.7782 C   0  0  0  0  0  0  0  0  0  0  0  0
  -26.2137    2.7922   28.5369 C   0  0  0  0  0  0  0  0  0  0  0  0
  -26.3905    1.7598   27.5785 F   0  0  0  0  0  0  0  0  0  0  0  0
  -25.0554    1.9966   27.1850 Br  0  0  0  0  0  0  0  0  0  0  0  0
  -24.7630    3.1941   24.8985 O   0  0  0  0  0  0  0  0  0  0  0  0
  3  4  1  0
  6 13  1  0
 13 14  2  0
 13 15  1  0
 12 16  1  0
 16 17  1  0
 17 18  1  0
 18 19  1  0
 24 25  1  0
 11 26  1  0
 17 27  1  0
  1  2  2  0
  2  3  1  0
  3  8  2  0
  8  7  1  0
  7  6  2  0
  6  1  1  0
 19 20  2  0
 20 21  1  0
 21 22  2  0
 22 23  1  0
 23 24  2  0
 24 19  1  0
  4  5  2  0
  5  9  1  0
  9 10  2  0
 10 12  1  0
 12 11  2  0
 11  4  1  0
M  END

$$$$
