No_613-gen_results/8p0m/2024-11-27-11-27-31/
     RDKit          3D

 16 16  0  0  0  0  0  0  0  0999 V2000
  -28.1493   -0.8198   28.9079 Cl  0  0  0  0  0  0  0  0  0  0  0  0
  -27.8339    0.4961   29.0598 C   0  0  0  0  0  0  0  0  0  0  0  0
  -27.6022    1.0128   30.2974 C   0  0  0  0  0  0  0  0  0  0  0  0
  -27.7182    0.1626   31.4900 C   0  0  0  0  0  0  0  0  0  0  0  0
  -27.5116    0.5962   32.7770 C   0  0  0  0  0  0  0  0  0  0  0  0
  -27.0754    1.9448   32.9969 C   0  0  0  0  0  0  0  0  0  0  0  0
  -26.8791    2.7892   31.8713 C   0  0  0  0  0  0  0  0  0  0  0  0
  -27.1086    2.2921   30.6350 C   0  0  0  0  0  0  0  0  0  0  0  0
  -27.6351    1.4091   27.9746 C   0  0  0  0  0  0  0  0  0  0  0  0
  -27.0894    0.8992   26.8339 C   0  0  0  0  0  0  0  0  0  0  0  0
  -25.8794    0.3108   26.7498 C   0  0  0  0  0  0  0  0  0  0  0  0
  -25.0064    0.2594   27.8323 C   0  0  0  0  0  0  0  0  0  0  0  0
  -23.8229   -0.4049   27.9977 C   0  0  0  0  0  0  0  0  0  0  0  0
  -22.8176    0.1145   28.8431 C   0  0  0  0  0  0  0  0  0  0  0  0
  -23.1286    1.1227   29.7066 C   0  0  0  0  0  0  0  0  0  0  0  0
  -24.3231    1.8812   29.6160 C   0  0  0  0  0  0  0  0  0  0  0  0
  1  2  1  0
  2  9  1  0
  9 10  1  0
 10 11  1  0
 11 12  2  3
 12 13  1  0
 13 14  2  3
 14 15  1  0
 15 16  2  0
  2  3  1  0
  3  4  2  0
  4  5  1  0
  5  6  2  0
  6  7  1  0
  7  8  2  0
  8  3  1  0
M  END

$$$$
