No_635-gen_results/8p0m/2024-11-27-11-27-31/
     RDKit          3D

 14 15  0  0  0  0  0  0  0  0999 V2000
  -28.0162   -0.8135   28.8779 C   0  0  0  0  0  0  0  0  0  0  0  0
  -27.0636   -0.1190   28.6079 C   0  0  0  0  0  0  0  0  0  0  0  0
  -26.9287    1.1713   29.0083 C   0  0  0  0  0  0  0  0  0  0  0  0
  -25.7702    2.0341   28.6884 C   0  0  0  0  0  0  0  0  0  0  0  0
  -24.7141    1.4431   27.9188 C   0  0  0  0  0  0  0  0  0  0  0  0
  -24.8590    0.0783   27.5836 C   0  0  0  0  0  0  0  0  0  0  0  0
  -25.9647   -0.6606   27.9164 C   0  0  0  0  0  0  0  0  0  0  0  0
  -28.6576   -0.6023   30.2546 C   0  0  0  0  0  0  0  0  0  0  0  0
  -28.9108    0.6988   30.5389 C   0  0  0  0  0  0  0  0  0  0  0  0
  -27.7732    1.5979   30.1492 C   0  0  0  0  0  0  0  0  0  0  0  0
  -23.5610    2.1844   27.4573 C   0  0  0  0  0  0  0  0  0  0  0  0
  -23.2122    2.8377   28.1852 F   0  0  0  0  0  0  0  0  0  0  0  0
  -23.8623    2.8242   26.3037 F   0  0  0  0  0  0  0  0  0  0  0  0
  -22.5348    1.2612   27.0365 F   0  0  0  0  0  0  0  0  0  0  0  0
  5 11  1  0
 11 12  1  0
 11 13  1  0
 11 14  1  0
  3  4  1  0
  4  5  2  0
  5  6  1  0
  6  7  2  0
  7  2  1  0
  1  2  2  0
  2  3  1  0
  3 10  2  0
 10  9  1  0
  9  8  2  0
  8  1  1  0
M  END

$$$$
