No_639-gen_results/8p0m/2024-11-27-11-27-31/
     RDKit          3D

 15 16  0  0  0  0  0  0  0  0999 V2000
  -28.0162   -0.8135   28.8779 C   0  0  0  0  0  0  0  0  0  0  0  0
  -28.4690   -0.7850   29.8287 C   0  0  0  0  0  0  0  0  0  0  0  0
  -26.5455   -0.8762   28.8500 C   0  0  0  0  0  0  0  0  0  0  0  0
  -25.8041   -1.0324   30.0571 C   0  0  0  0  0  0  0  0  0  0  0  0
  -26.5373   -1.0386   31.2171 C   0  0  0  0  0  0  0  0  0  0  0  0
  -27.8843   -0.9532   31.1862 C   0  0  0  0  0  0  0  0  0  0  0  0
  -24.3555   -1.1121   30.0346 C   0  0  0  0  0  0  0  0  0  0  0  0
  -23.6610    0.1027   29.8448 C   0  0  0  0  0  0  0  0  0  0  0  0
  -23.2716    0.5565   28.6955 C   0  0  0  0  0  0  0  0  0  0  0  0
  -22.1609    0.7413   28.4809 C   0  0  0  0  0  0  0  0  0  0  0  0
  -21.8046    1.3418   27.1665 C   0  0  0  0  0  0  0  0  0  0  0  0
  -22.8247    1.9390   26.4426 C   0  0  0  0  0  0  0  0  0  0  0  0
  -24.1581    1.3586   27.8020 C   0  0  0  0  0  0  0  0  0  0  0  0
  -23.9334    1.9906   26.7949 C   0  0  0  0  0  0  0  0  0  0  0  0
  -25.8345   -0.8899   27.6959 O   0  0  0  0  0  0  0  0  0  0  0  0
  1  3  1  0
  3  4  1  0
  4  5  1  0
  2  6  1  0
  5  6  1  0
  4  7  1  0
  7  8  1  0
  8  9  1  0
  3 15  2  0
  1  2  1  0
  9 10  2  0
 10 11  1  0
 11 12  2  0
 12 14  1  0
 14 13  2  0
 13  9  1  0
M  END

$$$$
