No_617-gen_results/8p0m/2024-11-27-11-27-31/
     RDKit          3D

 17 18  0  0  0  0  0  0  0  0999 V2000
  -28.0162   -0.8135   28.8779 C   0  0  0  0  0  0  0  0  0  0  0  0
  -28.4690   -0.7850   29.8287 C   0  0  0  0  0  0  0  0  0  0  0  0
  -27.1356    0.2359   28.5352 C   0  0  0  0  0  0  0  0  0  0  0  0
  -26.8745    1.2825   29.3982 C   0  0  0  0  0  0  0  0  0  0  0  0
  -28.3613    0.1987   30.9244 C   0  0  0  0  0  0  0  0  0  0  0  0
  -27.5277    1.2234   30.6356 C   0  0  0  0  0  0  0  0  0  0  0  0
  -26.3879    0.2914   27.2334 C   0  0  0  0  0  0  0  0  0  0  0  0
  -25.9210    1.4278   27.1199 F   0  0  0  0  0  0  0  0  0  0  0  0
  -27.2865    0.1584   26.2260 F   0  0  0  0  0  0  0  0  0  0  0  0
  -25.2628   -0.3311   27.2189 F   0  0  0  0  0  0  0  0  0  0  0  0
  -29.5185   -2.1895   30.3599 Cl  0  0  0  0  0  0  0  0  0  0  0  0
  -27.3090    2.3626   31.6058 C   0  0  0  0  0  0  0  0  0  0  0  0
  -26.4539    2.1782   32.5432 C   0  0  0  0  0  0  0  0  0  0  0  0
  -25.9770    3.2602   33.3016 C   0  0  0  0  0  0  0  0  0  0  0  0
  -26.0404    4.3479   32.9001 C   0  0  0  0  0  0  0  0  0  0  0  0
  -26.9087    4.7158   31.7728 C   0  0  0  0  0  0  0  0  0  0  0  0
  -27.4676    3.6779   31.0352 C   0  0  0  0  0  0  0  0  0  0  0  0
  3  7  1  0
  7  8  1  0
  7  9  1  0
  7 10  1  0
  2 11  1  0
  6 12  1  0
 12 13  2  0
 13 14  1  0
 14 15  2  0
 15 16  1  0
 16 17  2  0
 17 12  1  0
  1  2  2  0
  2  5  1  0
  5  6  2  0
  6  4  1  0
  4  3  2  0
  3  1  1  0
M  END

$$$$
