No_681-gen_results/8p0m/2024-11-27-11-27-31/
     RDKit          3D

 18 19  0  0  0  0  0  0  0  0999 V2000
  -28.0162   -0.8135   28.8779 C   0  0  0  0  0  0  0  0  0  0  0  0
  -27.0636   -0.1189   28.6079 C   0  0  0  0  0  0  0  0  0  0  0  0
  -26.9287    1.1713   29.0083 C   0  0  0  0  0  0  0  0  0  0  0  0
  -25.7702    2.0341   28.6884 C   0  0  0  0  0  0  0  0  0  0  0  0
  -24.7141    1.4431   27.9188 C   0  0  0  0  0  0  0  0  0  0  0  0
  -24.8590    0.0783   27.5836 C   0  0  0  0  0  0  0  0  0  0  0  0
  -25.9647   -0.6606   27.9164 C   0  0  0  0  0  0  0  0  0  0  0  0
  -29.1778   -0.3051   28.9638 N   0  0  0  0  0  0  0  0  0  0  0  0
  -30.1765   -0.9070   29.7369 C   0  0  0  0  0  0  0  0  0  0  0  0
  -23.5156    2.1616   27.5794 C   0  0  0  0  0  0  0  0  0  0  0  0
  -22.7837    2.3790   28.2479 O   0  0  0  0  0  0  0  0  0  0  0  0
  -23.5218    2.6048   26.3126 O   0  0  0  0  0  0  0  0  0  0  0  0
  -29.8387   -2.0906   30.3754 C   0  0  0  0  0  0  0  0  0  0  0  0
  -28.5745   -2.6203   30.4209 C   0  0  0  0  0  0  0  0  0  0  0  0
  -27.6207   -1.9006   29.8428 C   0  0  0  0  0  0  0  0  0  0  0  0
  -29.5756    0.7621   28.1601 C   0  0  0  0  0  0  0  0  0  0  0  0
  -29.5640    0.5770   26.8058 C   0  0  0  0  0  0  0  0  0  0  0  0
  -29.8526    1.5737   25.9283 C   0  0  0  0  0  0  0  0  0  0  0  0
  1  2  1  0
  1  8  1  0
  8  9  1  0
  5 10  1  0
 10 11  2  0
 10 12  1  0
 13 14  1  0
  1 15  1  0
  8 16  1  0
 16 17  2  3
 17 18  1  0
 15 14  1  0
 13  9  1  0
  2  3  2  0
  3  4  1  0
  4  5  2  0
  5  6  1  0
  6  7  2  0
  7  2  1  0
M  END

$$$$
