No_669-gen_results/8p0m/2024-11-27-11-27-31/
     RDKit          3D

 19 21  0  0  0  0  0  0  0  0999 V2000
  -28.0162   -0.8135   28.8779 C   0  0  0  0  0  0  0  0  0  0  0  0
  -28.4690   -0.7850   29.8287 C   0  0  0  0  0  0  0  0  0  0  0  0
  -28.3026    0.2475   28.0344 N   0  0  0  0  0  0  0  0  0  0  0  0
  -29.5669    0.6259   27.7714 C   0  0  0  0  0  0  0  0  0  0  0  0
  -30.0167   -0.7032   29.9032 C   0  0  0  0  0  0  0  0  0  0  0  0
  -30.3854    0.4337   29.0260 C   0  0  0  0  0  0  0  0  0  0  0  0
  -27.2317    0.8139   27.1639 C   0  0  0  0  0  0  0  0  0  0  0  0
  -27.1935    1.4098   26.3421 C   0  0  0  0  0  0  0  0  0  0  0  0
  -25.8053    0.3319   27.5998 C   0  0  0  0  0  0  0  0  0  0  0  0
  -24.7153    0.7946   26.9158 C   0  0  0  0  0  0  0  0  0  0  0  0
  -26.1419    1.9543   25.4878 C   0  0  0  0  0  0  0  0  0  0  0  0
  -24.8593    1.6332   25.8681 C   0  0  0  0  0  0  0  0  0  0  0  0
  -30.5425    1.7061   29.7604 C   0  0  0  0  0  0  0  0  0  0  0  0
  -31.5212    2.1080   30.2876 C   0  0  0  0  0  0  0  0  0  0  0  0
  -32.7373    1.3473   30.2391 C   0  0  0  0  0  0  0  0  0  0  0  0
  -33.6157    1.4135   31.2384 C   0  0  0  0  0  0  0  0  0  0  0  0
  -33.6269    2.5870   32.0869 C   0  0  0  0  0  0  0  0  0  0  0  0
  -32.5408    3.4124   32.1323 C   0  0  0  0  0  0  0  0  0  0  0  0
  -31.4485    3.1469   31.3079 C   0  0  0  0  0  0  0  0  0  0  0  0
  1  2  1  0
  1  3  1  0
  3  4  1  0
  2  5  1  0
  4  6  1  0
  5  6  1  0
  3  7  1  0
  6 13  1  0
 13 14  1  0
 14 15  2  0
 15 16  1  0
 16 17  2  0
 17 18  1  0
 18 19  2  0
 19 14  1  0
  7  8  2  0
  8 11  1  0
 11 12  2  0
 12 10  1  0
 10  9  2  0
  9  7  1  0
M  END

$$$$
