No_619-gen_results/8p0m/2024-11-27-11-27-31/
     RDKit          3D

 19 20  0  0  0  0  0  0  0  0999 V2000
  -28.0162   -0.8135   28.8779 C   0  0  0  0  0  0  0  0  0  0  0  0
  -27.0636   -0.1189   28.6079 C   0  0  0  0  0  0  0  0  0  0  0  0
  -25.7647   -0.3897   29.0360 C   0  0  0  0  0  0  0  0  0  0  0  0
  -24.5517    0.4058   28.7646 C   0  0  0  0  0  0  0  0  0  0  0  0
  -24.6957    1.4480   27.7988 C   0  0  0  0  0  0  0  0  0  0  0  0
  -25.9755    1.7250   27.3077 C   0  0  0  0  0  0  0  0  0  0  0  0
  -27.0718    1.0134   27.6535 C   0  0  0  0  0  0  0  0  0  0  0  0
  -29.1869   -0.1649   29.1026 N   0  0  0  0  0  0  0  0  0  0  0  0
  -23.4964    2.1689   27.4760 C   0  0  0  0  0  0  0  0  0  0  0  0
  -22.3507    1.7945   27.8086 O   0  0  0  0  0  0  0  0  0  0  0  0
  -23.5968    3.2926   26.8091 O   0  0  0  0  0  0  0  0  0  0  0  0
  -29.6560    0.1100   30.2711 C   0  0  0  0  0  0  0  0  0  0  0  0
  -30.0480    0.0239   27.9812 C   0  0  0  0  0  0  0  0  0  0  0  0
  -31.0274    0.8697   28.1422 C   0  0  0  0  0  0  0  0  0  0  0  0
  -30.7266    0.9916   30.5161 C   0  0  0  0  0  0  0  0  0  0  0  0
  -31.5513    1.2469   29.4048 C   0  0  0  0  0  0  0  0  0  0  0  0
  -31.8979    1.1686   26.9618 C   0  0  0  0  0  0  0  0  0  0  0  0
  -31.6376    0.9246   25.9387 O   0  0  0  0  0  0  0  0  0  0  0  0
  -33.0236    1.9076   27.1057 F   0  0  0  0  0  0  0  0  0  0  0  0
  1  8  1  0
  5  9  1  0
  9 10  2  0
  9 11  1  0
  8 12  1  0
  8 13  1  0
 14 16  1  0
 15 16  1  0
 14 17  1  0
 17 18  2  0
 17 19  1  0
  1  2  1  0
 12 15  1  0
 14 13  1  0
  2  3  2  0
  3  4  1  0
  4  5  2  0
  5  6  1  0
  6  7  2  0
  7  2  1  0
M  END

$$$$
