No_659-gen_results/8p0m/2024-11-27-11-27-31/
     RDKit          3D

 33 35  0  0  0  0  0  0  0  0999 V2000
  -28.1229   -1.3353   28.4874 O   0  0  0  0  0  0  0  0  0  0  0  0
  -27.0637   -0.8242   28.8687 C   0  0  0  0  0  0  0  0  0  0  0  0
  -26.4017   -0.0623   28.6224 C   0  0  0  0  0  0  0  0  0  0  0  0
  -26.2652   -1.8674   29.7609 N   0  0  0  0  0  0  0  0  0  0  0  0
  -25.0436    0.3924   29.0662 C   0  0  0  0  0  0  0  0  0  0  0  0
  -24.4726   -0.5445   29.9870 C   0  0  0  0  0  0  0  0  0  0  0  0
  -25.1332   -1.6696   30.2893 C   0  0  0  0  0  0  0  0  0  0  0  0
  -26.9049    1.1098   27.6518 C   0  0  0  0  0  0  0  0  0  0  0  0
  -26.1345    1.7175   26.8119 C   0  0  0  0  0  0  0  0  0  0  0  0
  -24.7453    2.0846   27.2960 C   0  0  0  0  0  0  0  0  0  0  0  0
  -24.1597    1.2542   28.2785 C   0  0  0  0  0  0  0  0  0  0  0  0
  -22.7681    1.4882   28.6442 C   0  0  0  0  0  0  0  0  0  0  0  0
  -21.9701    1.9544   27.6795 O   0  0  0  0  0  0  0  0  0  0  0  0
  -22.3787    1.4023   29.8638 O   0  0  0  0  0  0  0  0  0  0  0  0
  -27.1132   -3.0283   30.2478 C   0  0  0  0  0  0  0  0  0  0  0  0
  -28.4149   -2.8855   30.7496 C   0  0  0  0  0  0  0  0  0  0  0  0
  -29.1343   -3.9787   31.0236 C   0  0  0  0  0  0  0  0  0  0  0  0
  -30.4810   -3.8059   31.4040 C   0  0  0  0  0  0  0  0  0  0  0  0
  -31.0682   -2.5299   31.4943 C   0  0  0  0  0  0  0  0  0  0  0  0
  -30.2918   -1.4275   31.2313 C   0  0  0  0  0  0  0  0  0  0  0  0
  -28.9637   -1.5536   30.8418 C   0  0  0  0  0  0  0  0  0  0  0  0
  -26.5031   -4.1081   30.0568 O   0  0  0  0  0  0  0  0  0  0  0  0
  -31.3070   -5.0404   31.7280 C   0  0  0  0  0  0  0  0  0  0  0  0
  -31.4445   -5.4560   32.8506 F   0  0  0  0  0  0  0  0  0  0  0  0
  -32.5701   -4.8203   31.1110 F   0  0  0  0  0  0  0  0  0  0  0  0
  -30.7521   -6.0589   30.9724 F   0  0  0  0  0  0  0  0  0  0  0  0
  -28.3535    1.1268   27.4348 C   0  0  0  0  0  0  0  0  0  0  0  0
  -28.9735    0.8812   26.4914 O   0  0  0  0  0  0  0  0  0  0  0  0
  -28.9342    1.9203   28.4341 O   0  0  0  0  0  0  0  0  0  0  0  0
  -29.7772    2.9733   28.1728 C   0  0  0  0  0  0  0  0  0  0  0  0
  -30.7522    3.0813   28.9464 C   0  0  0  0  0  0  0  0  0  0  0  0
  -30.9164    2.4134   30.1390 C   0  0  0  0  0  0  0  0  0  0  0  0
  -29.8328    1.8812   30.7253 C   0  0  0  0  0  0  0  0  0  0  0  0
  1  2  2  0
  2  3  1  0
  2  4  1  0
  5  6  1  0
  4  7  1  0
 11 12  1  0
 12 13  2  0
 12 14  1  0
  4 15  1  0
 15 16  1  0
 15 22  2  0
 18 23  1  0
 23 24  1  0
 23 25  1  0
 23 26  1  0
  8 27  1  0
 27 28  2  0
 27 29  1  0
 29 30  1  0
 30 31  2  3
 31 32  1  0
 32 33  2  0
  6  7  1  0
  3  8  2  0
  8  9  1  0
  9 10  2  0
 10 11  1  0
 11  5  2  0
  5  3  1  0
 16 17  2  0
 17 18  1  0
 18 19  2  0
 19 20  1  0
 20 21  2  0
 21 16  1  0
M  END

$$$$
