No_670-gen_results/8p0m/2024-11-27-11-27-31/
     RDKit          3D

 23 24  0  0  0  0  0  0  0  0999 V2000
  -28.0162   -0.8135   28.8779 C   0  0  0  0  0  0  0  0  0  0  0  0
  -28.4690   -0.7850   29.8287 C   0  0  0  0  0  0  0  0  0  0  0  0
  -28.1816    0.4277   28.1134 C   0  0  0  0  0  0  0  0  0  0  0  0
  -28.9841    1.4155   28.5154 C   0  0  0  0  0  0  0  0  0  0  0  0
  -29.3802    0.1384   30.4612 C   0  0  0  0  0  0  0  0  0  0  0  0
  -29.5415    1.2736   29.7242 C   0  0  0  0  0  0  0  0  0  0  0  0
  -27.4452    0.4872   26.7726 C   0  0  0  0  0  0  0  0  0  0  0  0
  -27.8889    0.6351   25.8057 O   0  0  0  0  0  0  0  0  0  0  0  0
  -26.0426    0.6578   26.9336 O   0  0  0  0  0  0  0  0  0  0  0  0
  -25.2911    1.3657   26.1236 C   0  0  0  0  0  0  0  0  0  0  0  0
  -23.8560    1.3284   26.4941 C   0  0  0  0  0  0  0  0  0  0  0  0
  -23.4007    0.8870   27.7288 C   0  0  0  0  0  0  0  0  0  0  0  0
  -22.0741    1.0658   28.0602 C   0  0  0  0  0  0  0  0  0  0  0  0
  -21.5704    0.4302   29.2179 C   0  0  0  0  0  0  0  0  0  0  0  0
  -22.4163   -0.4519   29.9581 C   0  0  0  0  0  0  0  0  0  0  0  0
  -23.7889   -0.4660   29.6638 C   0  0  0  0  0  0  0  0  0  0  0  0
  -24.2472    0.1437   28.4991 C   0  0  0  0  0  0  0  0  0  0  0  0
  -30.4867    2.3716   30.2631 C   0  0  0  0  0  0  0  0  0  0  0  0
  -31.1865    2.9446   29.6927 O   0  0  0  0  0  0  0  0  0  0  0  0
  -29.9691    2.8468   31.4767 O   0  0  0  0  0  0  0  0  0  0  0  0
  -28.2866   -2.1089   30.8240 C   0  0  0  0  0  0  0  0  0  0  0  0
  -28.3411   -2.0516   31.9401 O   0  0  0  0  0  0  0  0  0  0  0  0
  -27.8683   -3.1353   30.1600 O   0  0  0  0  0  0  0  0  0  0  0  0
  3  7  1  0
  7  8  2  0
  7  9  1  0
  9 10  1  0
 10 11  1  0
 11 12  1  0
  6 18  1  0
 18 19  2  0
 18 20  1  0
  2 21  1  0
 21 22  2  0
 21 23  1  0
 12 13  2  0
 13 14  1  0
 14 15  2  0
 15 16  1  0
 16 17  2  0
 17 12  1  0
  1  2  2  0
  2  5  1  0
  5  6  2  0
  6  4  1  0
  4  3  2  0
  3  1  1  0
M  END

$$$$
