No_647-gen_results/8p0m/2024-11-27-11-27-31/
     RDKit          3D

 26 28  0  0  0  0  0  0  0  0999 V2000
  -28.0162   -0.8135   28.8779 C   0  0  0  0  0  0  0  0  0  0  0  0
  -27.0636   -0.1189   28.6079 C   0  0  0  0  0  0  0  0  0  0  0  0
  -25.7647   -0.3897   29.0360 C   0  0  0  0  0  0  0  0  0  0  0  0
  -25.5296   -1.5302   29.9014 C   0  0  0  0  0  0  0  0  0  0  0  0
  -26.6577   -2.2915   30.2035 C   0  0  0  0  0  0  0  0  0  0  0  0
  -27.8548   -1.9555   29.7630 C   0  0  0  0  0  0  0  0  0  0  0  0
  -24.5349    0.4128   28.7431 C   0  0  0  0  0  0  0  0  0  0  0  0
  -24.4835    1.2431   27.7398 C   0  0  0  0  0  0  0  0  0  0  0  0
  -23.2788    1.9376   27.4159 C   0  0  0  0  0  0  0  0  0  0  0  0
  -22.0791    1.6509   28.0212 C   0  0  0  0  0  0  0  0  0  0  0  0
  -23.2748    0.1108   29.4386 C   0  0  0  0  0  0  0  0  0  0  0  0
  -22.0811    0.7712   29.0650 C   0  0  0  0  0  0  0  0  0  0  0  0
  -28.9270   -2.7270   30.1273 O   0  0  0  0  0  0  0  0  0  0  0  0
  -30.0378   -2.2196   30.5990 C   0  0  0  0  0  0  0  0  0  0  0  0
  -30.2156   -1.2778   31.0422 C   0  0  0  0  0  0  0  0  0  0  0  0
  -30.8028   -0.4195   31.2548 C   0  0  0  0  0  0  0  0  0  0  0  0
  -30.7564    0.8476   32.0666 C   0  0  0  0  0  0  0  0  0  0  0  0
  -29.4772    1.1187   32.5202 C   0  0  0  0  0  0  0  0  0  0  0  0
  -28.4676    0.2104   32.3558 C   0  0  0  0  0  0  0  0  0  0  0  0
  -28.6951   -0.9715   31.6673 C   0  0  0  0  0  0  0  0  0  0  0  0
  -27.1334    0.5009   32.9756 C   0  0  0  0  0  0  0  0  0  0  0  0
  -26.0281    0.0006   32.4041 C   0  0  0  0  0  0  0  0  0  0  0  0
  -27.9688   -1.9982   32.3678 C   0  0  0  0  0  0  0  0  0  0  0  0
  -26.6273   -3.1463   31.1995 O   0  0  0  0  0  0  0  0  0  0  0  0
  -24.8925    0.9784   32.5349 C   0  0  0  0  0  0  0  0  0  0  0  0
  -28.2267   -1.8280   33.7400 O   0  0  0  0  0  0  0  0  0  0  0  0
  3  7  1  0
  6 13  1  0
 13 14  1  0
 14 15  1  0
 19 21  1  0
 21 22  2  3
 20 23  1  0
  5 24  1  0
 22 25  1  0
 23 26  1  0
  7  8  2  0
  8  9  1  0
  9 10  2  0
 10 12  1  0
 12 11  2  0
 11  7  1  0
  1  2  2  0
  2  3  1  0
  3  4  2  0
  4  5  1  0
  5  6  2  0
  6  1  1  0
 15 16  2  0
 16 17  1  0
 17 18  2  0
 18 19  1  0
 19 20  2  0
 20 15  1  0
M  END

$$$$
