No_611-gen_results/8p0m/2024-11-27-11-27-31/
     RDKit          3D

 10  9  0  0  0  0  0  0  0  0999 V2000
  -28.0162   -0.8135   28.8779 C   0  0  0  0  0  0  0  0  0  0  0  0
  -27.0636   -0.1190   28.6079 C   0  0  0  0  0  0  0  0  0  0  0  0
  -26.9515    1.1286   28.9566 N   0  0  0  0  0  0  0  0  0  0  0  0
  -27.7794   -1.6652   30.1072 C   0  0  0  0  0  0  0  0  0  0  0  0
  -26.1418    1.9311   29.1396 C   0  0  0  0  0  0  0  0  0  0  0  0
  -28.9000   -2.3460   30.7104 C   0  0  0  0  0  0  0  0  0  0  0  0
  -25.0473    2.2247   28.7597 C   0  0  0  0  0  0  0  0  0  0  0  0
  -23.9947    1.4472   29.2805 C   0  0  0  0  0  0  0  0  0  0  0  0
  -22.6632    1.4556   28.6597 C   0  0  0  0  0  0  0  0  0  0  0  0
  -22.5330    2.0132   27.3661 C   0  0  0  0  0  0  0  0  0  0  0  0
  1  2  1  0
  2  3  1  0
  1  4  1  0
  3  5  2  3
  4  6  1  0
  5  7  1  0
  7  8  2  3
  8  9  1  0
  9 10  2  0
M  END

$$$$
