No_694-gen_results/8p0m/2024-11-27-11-27-31/
     RDKit          3D

 19 21  0  0  0  0  0  0  0  0999 V2000
  -28.0162   -0.8135   28.8779 C   0  0  0  0  0  0  0  0  0  0  0  0
  -27.0636   -0.1190   28.6079 C   0  0  0  0  0  0  0  0  0  0  0  0
  -25.7647   -0.3897   29.0360 C   0  0  0  0  0  0  0  0  0  0  0  0
  -24.5516    0.4058   28.7646 C   0  0  0  0  0  0  0  0  0  0  0  0
  -24.6957    1.4480   27.7988 C   0  0  0  0  0  0  0  0  0  0  0  0
  -25.9755    1.7250   27.3077 C   0  0  0  0  0  0  0  0  0  0  0  0
  -27.0718    1.0134   27.6535 C   0  0  0  0  0  0  0  0  0  0  0  0
  -27.9653   -1.6216   30.1356 C   0  0  0  0  0  0  0  0  0  0  0  0
  -29.4098   -2.5588   30.6620 Br  0  0  0  0  0  0  0  0  0  0  0  0
  -23.4841    2.1974   27.4867 C   0  0  0  0  0  0  0  0  0  0  0  0
  -22.3162    1.6846   27.3675 C   0  0  0  0  0  0  0  0  0  0  0  0
  -21.8853    0.6832   28.3534 C   0  0  0  0  0  0  0  0  0  0  0  0
  -23.1845   -0.1382   29.0321 C   0  0  0  0  0  0  0  0  0  0  0  0
  -26.7015   -2.5004   30.1508 C   0  0  0  0  0  0  0  0  0  0  0  0
  -25.4750   -1.6057   29.9834 C   0  0  0  0  0  0  0  0  0  0  0  0
  -28.3763    1.3967   27.0929 C   0  0  0  0  0  0  0  0  0  0  0  0
  -26.0914    2.9304   26.4613 C   0  0  0  0  0  0  0  0  0  0  0  0
  -29.1629    0.7438   26.8292 O   0  0  0  0  0  0  0  0  0  0  0  0
  -28.7521    2.6463   27.0106 O   0  0  0  0  0  0  0  0  0  0  0  0
  8  9  1  0
  7 16  1  0
  6 17  1  0
 16 18  2  0
 16 19  1  0
  3  4  1  0
  5  6  1  0
  6  7  2  0
  7  2  1  0
  4  5  2  0
  5 10  1  0
 10 11  2  0
 11 12  1  0
 12 13  2  0
 13  4  1  0
  1  2  2  0
  2  3  1  0
  3 15  2  0
 15 14  1  0
 14  8  2  0
  8  1  1  0
M  END

$$$$
