No_614-gen_results/8p0m/2024-11-27-11-27-31/
     RDKit          3D

 22 24  0  0  0  0  0  0  0  0999 V2000
  -28.0162   -0.8135   28.8779 C   0  0  0  0  0  0  0  0  0  0  0  0
  -28.4690   -0.7850   29.8287 C   0  0  0  0  0  0  0  0  0  0  0  0
  -28.1960    0.3478   28.0550 C   0  0  0  0  0  0  0  0  0  0  0  0
  -29.0191    1.3501   28.3782 C   0  0  0  0  0  0  0  0  0  0  0  0
  -29.6249    1.2683   29.6012 C   0  0  0  0  0  0  0  0  0  0  0  0
  -30.5243    2.3147   30.0648 C   0  0  0  0  0  0  0  0  0  0  0  0
  -29.3399    0.1476   30.4094 C   0  0  0  0  0  0  0  0  0  0  0  0
  -30.2594    2.7230   31.1722 F   0  0  0  0  0  0  0  0  0  0  0  0
  -31.7960    1.7860   30.0785 F   0  0  0  0  0  0  0  0  0  0  0  0
  -30.5160    3.3110   29.1206 F   0  0  0  0  0  0  0  0  0  0  0  0
  -27.4002    0.3209   26.6883 C   0  0  0  0  0  0  0  0  0  0  0  0
  -25.9544    0.3681   26.7189 C   0  0  0  0  0  0  0  0  0  0  0  0
  -25.2215   -0.1637   27.7521 C   0  0  0  0  0  0  0  0  0  0  0  0
  -23.8228   -0.0108   27.8630 C   0  0  0  0  0  0  0  0  0  0  0  0
  -23.0889   -0.5337   28.9942 C   0  0  0  0  0  0  0  0  0  0  0  0
  -23.6932   -1.6202   29.6587 C   0  0  0  0  0  0  0  0  0  0  0  0
  -25.0115   -1.9787   29.4367 C   0  0  0  0  0  0  0  0  0  0  0  0
  -25.6817   -1.2916   28.5106 C   0  0  0  0  0  0  0  0  0  0  0  0
  -27.0710   -1.2165   28.7592 N   0  0  0  0  0  0  0  0  0  0  0  0
  -25.2929    1.0111   25.6193 C   0  0  0  0  0  0  0  0  0  0  0  0
  -28.1423    0.4800   25.5408 C   0  0  0  0  0  0  0  0  0  0  0  0
  -28.0802    1.2229   24.6801 Br  0  0  0  0  0  0  0  0  0  0  0  0
  5  6  1  0
  6  8  1  0
  6  9  1  0
  6 10  1  0
  3 11  1  0
 11 12  1  0
  1 19  1  0
 12 20  1  0
 11 21  1  0
 21 22  1  0
 12 13  1  0
 19 18  1  0
  1  2  2  0
  2  7  1  0
  7  5  2  0
  5  4  1  0
  4  3  2  0
  3  1  1  0
 13 14  2  0
 14 15  1  0
 15 16  2  0
 16 17  1  0
 17 18  2  0
 18 13  1  0
M  END

$$$$
