No_643-gen_results/8p0m/2024-11-27-11-27-31/
     RDKit          3D

 22 23  0  0  0  0  0  0  0  0999 V2000
  -28.0162   -0.8135   28.8779 C   0  0  0  0  0  0  0  0  0  0  0  0
  -27.0636   -0.1190   28.6079 C   0  0  0  0  0  0  0  0  0  0  0  0
  -25.8176   -0.3427   29.0488 N   0  0  0  0  0  0  0  0  0  0  0  0
  -24.6506    0.4444   28.7649 C   0  0  0  0  0  0  0  0  0  0  0  0
  -24.7153    1.3122   27.7191 C   0  0  0  0  0  0  0  0  0  0  0  0
  -25.9996    1.5243   27.1533 C   0  0  0  0  0  0  0  0  0  0  0  0
  -27.0905    0.8203   27.5377 C   0  0  0  0  0  0  0  0  0  0  0  0
  -28.6177   -0.3972   30.2296 C   0  0  0  0  0  0  0  0  0  0  0  0
  -29.6844   -1.1971   30.7565 C   0  0  0  0  0  0  0  0  0  0  0  0
  -30.2962   -0.8770   31.9318 C   0  0  0  0  0  0  0  0  0  0  0  0
  -29.7842    0.2613   32.6515 C   0  0  0  0  0  0  0  0  0  0  0  0
  -28.7238    0.9758   32.1595 C   0  0  0  0  0  0  0  0  0  0  0  0
  -28.1413    0.6441   30.9751 C   0  0  0  0  0  0  0  0  0  0  0  0
  -23.5684    0.0932   29.3209 F   0  0  0  0  0  0  0  0  0  0  0  0
  -23.3608    1.7414   27.3355 C   0  0  0  0  0  0  0  0  0  0  0  0
  -23.2783    2.6574   26.4085 O   0  0  0  0  0  0  0  0  0  0  0  0
  -22.1787    1.2001   27.6253 O   0  0  0  0  0  0  0  0  0  0  0  0
  -28.3862    1.1658   26.9187 C   0  0  0  0  0  0  0  0  0  0  0  0
  -28.9805    2.1847   27.3439 N   0  0  0  0  0  0  0  0  0  0  0  0
  -29.6709    2.9460   27.0886 C   0  0  0  0  0  0  0  0  0  0  0  0
  -28.8667    0.4610   26.0236 O   0  0  0  0  0  0  0  0  0  0  0  0
  -30.3500    3.6688   27.2733 C   0  0  0  0  0  0  0  0  0  0  0  0
  1  2  1  0
  1  8  1  0
  4 14  1  0
  5 15  1  0
 15 16  2  0
 15 17  1  0
  7 18  1  0
 18 19  1  0
 19 20  2  3
 18 21  2  0
 20 22  1  0
  2  3  2  0
  3  4  1  0
  4  5  2  0
  5  6  1  0
  6  7  2  0
  7  2  1  0
  8  9  2  0
  9 10  1  0
 10 11  2  0
 11 12  1  0
 12 13  2  0
 13  8  1  0
M  END

$$$$
