No_685-gen_results/8p0m/2024-11-27-11-27-31/
     RDKit          3D

 18 20  0  0  0  0  0  0  0  0999 V2000
  -28.0162   -0.8135   28.8779 C   0  0  0  0  0  0  0  0  0  0  0  0
  -28.4690   -0.7850   29.8287 C   0  0  0  0  0  0  0  0  0  0  0  0
  -27.1356    0.2359   28.5352 C   0  0  0  0  0  0  0  0  0  0  0  0
  -26.8745    1.2825   29.3982 C   0  0  0  0  0  0  0  0  0  0  0  0
  -28.3613    0.1987   30.9244 C   0  0  0  0  0  0  0  0  0  0  0  0
  -27.5277    1.2234   30.6356 C   0  0  0  0  0  0  0  0  0  0  0  0
  -26.3503    0.5073   27.2580 C   0  0  0  0  0  0  0  0  0  0  0  0
  -25.2162    0.8642   27.1708 C   0  0  0  0  0  0  0  0  0  0  0  0
  -24.8005    1.8499   28.1982 C   0  0  0  0  0  0  0  0  0  0  0  0
  -25.5719    1.9548   29.3779 C   0  0  0  0  0  0  0  0  0  0  0  0
  -23.6988    2.7297   28.0217 C   0  0  0  0  0  0  0  0  0  0  0  0
  -22.8303    2.4788   27.0462 O   0  0  0  0  0  0  0  0  0  0  0  0
  -29.4794   -1.9867   30.0371 C   0  0  0  0  0  0  0  0  0  0  0  0
  -29.2937   -3.2355   30.4820 N   0  0  0  0  0  0  0  0  0  0  0  0
  -30.9478   -1.7177   29.9406 C   0  0  0  0  0  0  0  0  0  0  0  0
  -31.7788   -2.7778   29.9589 C   0  0  0  0  0  0  0  0  0  0  0  0
  -29.9692   -4.2803   30.5495 C   0  0  0  0  0  0  0  0  0  0  0  0
  -31.3304   -4.0755   30.3246 C   0  0  0  0  0  0  0  0  0  0  0  0
  9 11  1  0
 11 12  2  0
  2 13  1  0
  4 10  2  0
 10  9  1  0
  9  8  2  0
  8  7  1  0
  7  3  2  0
  1  2  2  0
  2  5  1  0
  5  6  2  0
  6  4  1  0
  4  3  1  0
  3  1  1  0
 13 14  2  0
 14 17  1  0
 17 18  2  0
 18 16  1  0
 16 15  2  0
 15 13  1  0
M  END

$$$$
