No_726-gen_results/8p0m/2024-11-27-11-27-31/
     RDKit          3D

 21 22  0  0  0  0  0  0  0  0999 V2000
  -28.0162   -0.8135   28.8779 C   0  0  0  0  0  0  0  0  0  0  0  0
  -27.0636   -0.1189   28.6079 C   0  0  0  0  0  0  0  0  0  0  0  0
  -27.0010    0.6913   27.4910 C   0  0  0  0  0  0  0  0  0  0  0  0
  -25.8548    1.4825   27.0830 C   0  0  0  0  0  0  0  0  0  0  0  0
  -24.6901    1.4526   27.8807 C   0  0  0  0  0  0  0  0  0  0  0  0
  -24.7379    0.6010   29.0416 C   0  0  0  0  0  0  0  0  0  0  0  0
  -25.8234   -0.1688   29.3887 C   0  0  0  0  0  0  0  0  0  0  0  0
  -29.2455   -0.0678   29.1937 C   0  0  0  0  0  0  0  0  0  0  0  0
  -30.3313   -0.8312   29.6878 C   0  0  0  0  0  0  0  0  0  0  0  0
  -30.5336   -0.9512   30.7566 C   0  0  0  0  0  0  0  0  0  0  0  0
  -31.5467   -1.7945   31.3172 C   0  0  0  0  0  0  0  0  0  0  0  0
  -32.4044   -2.4080   30.3839 C   0  0  0  0  0  0  0  0  0  0  0  0
  -32.1900   -2.2444   29.0729 C   0  0  0  0  0  0  0  0  0  0  0  0
  -31.1369   -1.4619   28.6548 C   0  0  0  0  0  0  0  0  0  0  0  0
  -29.3279    1.1879   28.9635 O   0  0  0  0  0  0  0  0  0  0  0  0
  -23.5083    2.1684   27.5611 C   0  0  0  0  0  0  0  0  0  0  0  0
  -22.4611    1.6580   27.2347 N   0  0  0  0  0  0  0  0  0  0  0  0
  -23.5300    3.4507   27.7780 O   0  0  0  0  0  0  0  0  0  0  0  0
  -33.0328   -2.8904   28.0710 C   0  0  0  0  0  0  0  0  0  0  0  0
  -32.6226   -3.8328   27.4162 O   0  0  0  0  0  0  0  0  0  0  0  0
  -34.2227   -2.4514   27.7981 O   0  0  0  0  0  0  0  0  0  0  0  0
  1  2  1  0
  1  8  1  0
  8  9  1  0
  8 15  2  0
  5 16  1  0
 16 17  1  0
 16 18  2  0
 13 19  1  0
 19 20  1  0
 19 21  2  0
  2  3  2  0
  3  4  1  0
  4  5  2  0
  5  6  1  0
  6  7  2  0
  7  2  1  0
  9 10  2  0
 10 11  1  0
 11 12  2  0
 12 13  1  0
 13 14  2  0
 14  9  1  0
M  END

$$$$
