No_743-gen_results/8p0m/2024-11-27-11-27-31/
     RDKit          3D

 22 24  0  0  0  0  0  0  0  0999 V2000
  -28.1493   -0.8198   28.9079 Cl  0  0  0  0  0  0  0  0  0  0  0  0
  -27.8339    0.4961   29.0598 C   0  0  0  0  0  0  0  0  0  0  0  0
  -27.5135    1.2383   28.0485 C   0  0  0  0  0  0  0  0  0  0  0  0
  -26.8806    2.5191   28.1751 C   0  0  0  0  0  0  0  0  0  0  0  0
  -26.3867    2.8125   29.0704 C   0  0  0  0  0  0  0  0  0  0  0  0
  -25.6570    4.1240   29.3619 C   0  0  0  0  0  0  0  0  0  0  0  0
  -25.4499    4.8816   28.2398 C   0  0  0  0  0  0  0  0  0  0  0  0
  -25.8642    4.4574   26.9704 C   0  0  0  0  0  0  0  0  0  0  0  0
  -26.5801    3.2432   26.8955 C   0  0  0  0  0  0  0  0  0  0  0  0
  -27.8608    0.7794   26.7143 C   0  0  0  0  0  0  0  0  0  0  0  0
  -29.1627    0.6208   26.2485 C   0  0  0  0  0  0  0  0  0  0  0  0
  -29.3682    0.1401   24.9770 C   0  0  0  0  0  0  0  0  0  0  0  0
  -28.2800   -0.1719   24.1559 C   0  0  0  0  0  0  0  0  0  0  0  0
  -26.8062    0.5729   25.7181 C   0  0  0  0  0  0  0  0  0  0  0  0
  -27.0234    0.0672   24.5228 C   0  0  0  0  0  0  0  0  0  0  0  0
  -27.4944    1.0756   30.4266 C   0  0  0  0  0  0  0  0  0  0  0  0
  -26.7177    2.1984   30.4585 C   0  0  0  0  0  0  0  0  0  0  0  0
  -30.5008    0.9672   27.2142 Cl  0  0  0  0  0  0  0  0  0  0  0  0
  -26.3110    2.7847   31.7363 C   0  0  0  0  0  0  0  0  0  0  0  0
  -26.4684    3.9018   32.0124 F   0  0  0  0  0  0  0  0  0  0  0  0
  -26.7815    1.9377   32.7424 F   0  0  0  0  0  0  0  0  0  0  0  0
  -24.8808    2.4439   31.8036 F   0  0  0  0  0  0  0  0  0  0  0  0
  1  2  1  0
  3 10  1  0
 11 18  1  0
 17 19  1  0
 19 20  1  0
 19 21  1  0
 19 22  1  0
 10 11  2  0
 11 12  1  0
 12 13  2  0
 13 15  1  0
 15 14  2  0
 14 10  1  0
  5  6  2  0
  6  7  1  0
  7  8  2  0
  8  9  1  0
  9  4  2  0
  2  3  2  0
  3  4  1  0
  4  5  1  0
  5 17  1  0
 17 16  2  0
 16  2  1  0
M  END

$$$$
