No_722-gen_results/8p0m/2024-11-27-11-27-31/
     RDKit          3D

 35 38  0  0  0  0  0  0  0  0999 V2000
  -28.0162   -0.8135   28.8779 C   0  0  0  0  0  0  0  0  0  0  0  0
  -27.0636   -0.1189   28.6079 C   0  0  0  0  0  0  0  0  0  0  0  0
  -27.0010    0.6913   27.4910 C   0  0  0  0  0  0  0  0  0  0  0  0
  -25.8548    1.4825   27.0830 C   0  0  0  0  0  0  0  0  0  0  0  0
  -24.6901    1.4526   27.8807 C   0  0  0  0  0  0  0  0  0  0  0  0
  -24.7379    0.6010   29.0416 C   0  0  0  0  0  0  0  0  0  0  0  0
  -25.8234   -0.1688   29.3887 C   0  0  0  0  0  0  0  0  0  0  0  0
  -29.2075   -0.1514   29.0660 N   0  0  0  0  0  0  0  0  0  0  0  0
  -30.2318   -0.7607   29.6957 C   0  0  0  0  0  0  0  0  0  0  0  0
  -23.5223    2.2141   27.5499 C   0  0  0  0  0  0  0  0  0  0  0  0
  -23.5993    2.9491   26.6311 F   0  0  0  0  0  0  0  0  0  0  0  0
  -22.4382    1.3399   27.2164 F   0  0  0  0  0  0  0  0  0  0  0  0
  -23.0925    2.9246   28.6211 F   0  0  0  0  0  0  0  0  0  0  0  0
  -31.5259   -0.5140   29.3153 C   0  0  0  0  0  0  0  0  0  0  0  0
  -30.0068   -1.6738   30.8131 C   0  0  0  0  0  0  0  0  0  0  0  0
  -28.8468   -1.8567   31.2594 O   0  0  0  0  0  0  0  0  0  0  0  0
  -31.0454   -1.9774   31.5699 N   0  0  0  0  0  0  0  0  0  0  0  0
  -31.7519    0.3070   28.2057 C   0  0  0  0  0  0  0  0  0  0  0  0
  -32.8875    0.5111   27.6626 C   0  0  0  0  0  0  0  0  0  0  0  0
  -33.9565   -0.1795   28.1905 C   0  0  0  0  0  0  0  0  0  0  0  0
  -33.8193   -1.0594   29.2556 C   0  0  0  0  0  0  0  0  0  0  0  0
  -32.5817   -1.2446   29.7848 C   0  0  0  0  0  0  0  0  0  0  0  0
  -30.7589   -2.7733   32.6921 C   0  0  0  0  0  0  0  0  0  0  0  0
  -32.3363   -1.8633   30.9918 C   0  0  0  0  0  0  0  0  0  0  0  0
  -33.3201   -2.4359   31.5951 O   0  0  0  0  0  0  0  0  0  0  0  0
  -25.7284   -0.9624   30.5905 C   0  0  0  0  0  0  0  0  0  0  0  0
  -24.5371   -1.1457   31.0802 N   0  0  0  0  0  0  0  0  0  0  0  0
  -24.0071   -0.6579   32.2761 C   0  0  0  0  0  0  0  0  0  0  0  0
  -23.6309   -1.8705   30.4406 C   0  0  0  0  0  0  0  0  0  0  0  0
  -28.1107    0.7988   26.5239 C   0  0  0  0  0  0  0  0  0  0  0  0
  -28.0117    1.0686   25.2847 C   0  0  0  0  0  0  0  0  0  0  0  0
  -29.0593    1.0300   24.3517 C   0  0  0  0  0  0  0  0  0  0  0  0
  -30.2288    1.3577   24.8252 C   0  0  0  0  0  0  0  0  0  0  0  0
  -30.4582    1.3016   26.2607 C   0  0  0  0  0  0  0  0  0  0  0  0
  -29.3693    1.1744   27.1279 C   0  0  0  0  0  0  0  0  0  0  0  0
  1  2  1  0
  1  8  1  0
  8  9  1  0
  5 10  1  0
 10 11  1  0
 10 12  1  0
 10 13  1  0
  9 15  1  0
 15 16  2  0
 15 17  1  0
 17 23  1  0
 17 24  1  0
 22 24  1  0
 24 25  2  0
  7 26  1  0
 26 27  1  0
 27 28  1  0
 27 29  1  0
  3 30  1  0
  9 14  1  0
  2  3  1  0
  3  4  2  0
  4  5  1  0
  5  6  2  0
  6  7  1  0
  7  2  2  0
 30 31  2  0
 31 32  1  0
 32 33  2  0
 33 34  1  0
 34 35  2  0
 35 30  1  0
 14 18  2  0
 18 19  1  0
 19 20  2  0
 20 21  1  0
 21 22  2  0
 22 14  1  0
M  END

$$$$
