No_733-gen_results/8p0m/2024-11-27-11-27-31/
     RDKit          3D

 34 37  0  0  0  0  0  0  0  0999 V2000
  -28.0162   -0.8135   28.8779 C   0  0  0  0  0  0  0  0  0  0  0  0
  -28.4690   -0.7850   29.8287 C   0  0  0  0  0  0  0  0  0  0  0  0
  -26.5455   -0.8762   28.8500 C   0  0  0  0  0  0  0  0  0  0  0  0
  -25.8041   -1.0324   30.0571 C   0  0  0  0  0  0  0  0  0  0  0  0
  -27.9437   -0.9869   31.2075 C   0  0  0  0  0  0  0  0  0  0  0  0
  -26.5825   -1.0386   31.2231 C   0  0  0  0  0  0  0  0  0  0  0  0
  -29.9267   -0.7257   29.8772 O   0  0  0  0  0  0  0  0  0  0  0  0
  -30.5050   -0.0237   28.9624 C   0  0  0  0  0  0  0  0  0  0  0  0
  -31.3773   -0.3992   28.1172 C   0  0  0  0  0  0  0  0  0  0  0  0
  -31.9394    0.3228   27.0412 C   0  0  0  0  0  0  0  0  0  0  0  0
  -31.4912    1.6577   26.9464 C   0  0  0  0  0  0  0  0  0  0  0  0
  -30.0152    1.3636   28.7408 C   0  0  0  0  0  0  0  0  0  0  0  0
  -30.5425    2.1519   27.8151 C   0  0  0  0  0  0  0  0  0  0  0  0
  -24.3713   -1.1156   30.0710 C   0  0  0  0  0  0  0  0  0  0  0  0
  -23.7038    0.0831   29.8016 C   0  0  0  0  0  0  0  0  0  0  0  0
  -23.8540    1.1777   30.4959 C   0  0  0  0  0  0  0  0  0  0  0  0
  -23.9769    2.3136   30.0480 C   0  0  0  0  0  0  0  0  0  0  0  0
  -23.4895    2.5781   28.6589 C   0  0  0  0  0  0  0  0  0  0  0  0
  -23.0106    1.4750   27.9861 C   0  0  0  0  0  0  0  0  0  0  0  0
  -23.1732    0.1797   28.4616 C   0  0  0  0  0  0  0  0  0  0  0  0
  -25.8651   -0.7713   27.7142 F   0  0  0  0  0  0  0  0  0  0  0  0
  -32.9617   -0.1984   26.2054 C   0  0  0  0  0  0  0  0  0  0  0  0
  -32.7410   -0.9308   25.2254 C   0  0  0  0  0  0  0  0  0  0  0  0
  -33.7326   -1.5791   24.3746 C   0  0  0  0  0  0  0  0  0  0  0  0
  -31.3678   -1.3544   24.8122 C   0  0  0  0  0  0  0  0  0  0  0  0
  -22.5585    1.7463   26.7313 O   0  0  0  0  0  0  0  0  0  0  0  0
  -30.3314   -0.9297   25.0566 N   0  0  0  0  0  0  0  0  0  0  0  0
  -29.2087   -1.2126   24.3058 C   0  0  0  0  0  0  0  0  0  0  0  0
  -27.9919   -0.5349   24.6157 C   0  0  0  0  0  0  0  0  0  0  0  0
  -28.2389    0.7178   25.3967 C   0  0  0  0  0  0  0  0  0  0  0  0
  -27.0161    1.4688   25.6471 C   0  0  0  0  0  0  0  0  0  0  0  0
  -25.7540    1.0514   25.1995 C   0  0  0  0  0  0  0  0  0  0  0  0
  -25.6317   -0.1675   24.4834 C   0  0  0  0  0  0  0  0  0  0  0  0
  -26.7397   -0.8766   24.2489 C   0  0  0  0  0  0  0  0  0  0  0  0
  2  7  1  0
  7  8  1  0
  4 14  1  0
 14 15  1  0
  3 21  1  0
 10 22  1  0
 22 23  2  3
 23 24  1  0
 23 25  1  0
 19 26  1  0
 25 27  1  0
 27 28  2  3
 28 29  1  0
 15 16  2  0
 16 17  1  0
 17 18  2  0
 18 19  1  0
 19 20  2  0
 20 15  1  0
  1  2  2  0
  2  5  1  0
  5  6  2  0
  6  4  1  0
  4  3  2  0
  3  1  1  0
 29 30  2  0
 30 31  1  0
 31 32  2  0
 32 33  1  0
 33 34  2  0
 34 29  1  0
  8  9  2  0
  9 10  1  0
 10 11  2  0
 11 13  1  0
 13 12  2  0
 12  8  1  0
M  END

$$$$
