No_771-gen_results/8p0m/2024-11-27-11-27-31/
     RDKit          3D

 18 19  0  0  0  0  0  0  0  0999 V2000
  -28.0727   -1.2542   28.5316 F   0  0  0  0  0  0  0  0  0  0  0  0
  -27.3591   -0.3792   28.7224 C   0  0  0  0  0  0  0  0  0  0  0  0
  -26.8100    0.1885   27.6513 C   0  0  0  0  0  0  0  0  0  0  0  0
  -26.2412   -0.8067   29.7487 C   0  0  0  0  0  0  0  0  0  0  0  0
  -27.9984    0.6085   29.4636 F   0  0  0  0  0  0  0  0  0  0  0  0
  -25.4261    0.1279   27.2642 C   0  0  0  0  0  0  0  0  0  0  0  0
  -24.9111   -1.1051   29.2849 C   0  0  0  0  0  0  0  0  0  0  0  0
  -24.4851   -0.4639   28.1400 C   0  0  0  0  0  0  0  0  0  0  0  0
  -27.5697    0.8432   26.7024 O   0  0  0  0  0  0  0  0  0  0  0  0
  -24.7620    0.7442   25.8404 Cl  0  0  0  0  0  0  0  0  0  0  0  0
  -28.0455    0.2083   25.6696 C   0  0  0  0  0  0  0  0  0  0  0  0
  -26.6987   -1.5713   31.2214 Cl  0  0  0  0  0  0  0  0  0  0  0  0
  -29.4272    0.1771   25.5388 C   0  0  0  0  0  0  0  0  0  0  0  0
  -30.1330    0.9264   26.4493 C   0  0  0  0  0  0  0  0  0  0  0  0
  -31.5051    0.6074   26.6449 C   0  0  0  0  0  0  0  0  0  0  0  0
  -32.0575   -0.1912   25.6558 C   0  0  0  0  0  0  0  0  0  0  0  0
  -31.2588   -0.8900   24.9197 C   0  0  0  0  0  0  0  0  0  0  0  0
  -29.9368   -0.8028   24.8043 C   0  0  0  0  0  0  0  0  0  0  0  0
  1  2  1  0
  2  3  1  0
  2  4  1  0
  2  5  1  0
  3  6  2  0
  4  7  2  0
  6  8  1  0
  7  8  1  0
  3  9  1  0
  6 10  1  0
  9 11  1  0
  4 12  1  0
 11 13  1  0
 13 14  2  0
 14 15  1  0
 15 16  2  0
 16 17  1  0
 17 18  2  0
 18 13  1  0
M  END

$$$$
