No_738-gen_results/8p0m/2024-11-27-11-27-31/
     RDKit          3D

 16 16  0  0  0  0  0  0  0  0999 V2000
  -28.0162   -0.8135   28.8779 C   0  0  0  0  0  0  0  0  0  0  0  0
  -27.0636   -0.1189   28.6079 C   0  0  0  0  0  0  0  0  0  0  0  0
  -25.7647   -0.3897   29.0360 C   0  0  0  0  0  0  0  0  0  0  0  0
  -24.5516    0.4058   28.7646 C   0  0  0  0  0  0  0  0  0  0  0  0
  -24.6957    1.4480   27.7988 C   0  0  0  0  0  0  0  0  0  0  0  0
  -25.9755    1.7250   27.3077 C   0  0  0  0  0  0  0  0  0  0  0  0
  -27.0718    1.0134   27.6535 C   0  0  0  0  0  0  0  0  0  0  0  0
  -29.2099   -0.0501   29.3493 C   0  0  0  0  0  0  0  0  0  0  0  0
  -30.3469   -0.8660   29.6614 C   0  0  0  0  0  0  0  0  0  0  0  0
  -23.4889    2.1927   27.4888 C   0  0  0  0  0  0  0  0  0  0  0  0
  -22.2893    1.8060   27.9072 N   0  0  0  0  0  0  0  0  0  0  0  0
  -23.5656    3.0960   26.5816 O   0  0  0  0  0  0  0  0  0  0  0  0
  -31.5417   -0.5950   29.0828 C   0  0  0  0  0  0  0  0  0  0  0  0
  -32.6040   -1.4375   29.2151 C   0  0  0  0  0  0  0  0  0  0  0  0
  -32.4772   -2.5905   30.0516 C   0  0  0  0  0  0  0  0  0  0  0  0
  -31.2868   -2.8792   30.6704 C   0  0  0  0  0  0  0  0  0  0  0  0
  1  2  2  3
  2  3  1  0
  3  4  1  0
  4  5  1  0
  5  6  1  0
  2  7  1  0
  6  7  1  0
  1  8  1  0
  8  9  2  3
  5 10  1  0
 10 11  1  0
 10 12  2  0
  9 13  1  0
 13 14  2  3
 14 15  1  0
 15 16  2  0
M  END

$$$$
