No_793-gen_results/8p0m/2024-11-27-11-27-31/
     RDKit          3D

 21 22  0  0  0  0  0  0  0  0999 V2000
  -28.1493   -0.8198   28.9079 Cl  0  0  0  0  0  0  0  0  0  0  0  0
  -27.8339    0.4961   29.0598 C   0  0  0  0  0  0  0  0  0  0  0  0
  -27.5135    1.2383   28.0485 C   0  0  0  0  0  0  0  0  0  0  0  0
  -27.0548    2.6251   28.1330 C   0  0  0  0  0  0  0  0  0  0  0  0
  -26.9438    3.1838   29.4305 C   0  0  0  0  0  0  0  0  0  0  0  0
  -27.2205    2.3582   30.5116 C   0  0  0  0  0  0  0  0  0  0  0  0
  -27.5987    1.0586   30.3700 C   0  0  0  0  0  0  0  0  0  0  0  0
  -26.4856    4.5602   29.5942 C   0  0  0  0  0  0  0  0  0  0  0  0
  -27.2451    5.4437   29.5751 O   0  0  0  0  0  0  0  0  0  0  0  0
  -25.1635    4.6957   29.7951 O   0  0  0  0  0  0  0  0  0  0  0  0
  -27.5773    0.8275   26.7647 O   0  0  0  0  0  0  0  0  0  0  0  0
  -26.4824    0.7989   26.0008 C   0  0  0  0  0  0  0  0  0  0  0  0
  -26.6504    0.5629   24.6876 C   0  0  0  0  0  0  0  0  0  0  0  0
  -25.1410    0.6970   26.4665 C   0  0  0  0  0  0  0  0  0  0  0  0
  -24.7580    0.7662   27.8734 C   0  0  0  0  0  0  0  0  0  0  0  0
  -23.3403    0.6430   28.0524 C   0  0  0  0  0  0  0  0  0  0  0  0
  -22.8984   -0.1445   29.0876 C   0  0  0  0  0  0  0  0  0  0  0  0
  -21.4991   -0.3957   29.1235 C   0  0  0  0  0  0  0  0  0  0  0  0
  -20.6132    0.3701   28.3662 C   0  0  0  0  0  0  0  0  0  0  0  0
  -22.3962    1.3826   27.3257 C   0  0  0  0  0  0  0  0  0  0  0  0
  -21.1007    1.3029   27.5580 N   0  0  0  0  0  0  0  0  0  0  0  0
  1  2  1  0
  5  8  1  0
  8  9  1  0
  8 10  2  0
  3 11  1  0
 11 12  1  0
 12 13  2  0
 12 14  1  0
 14 15  1  0
 15 16  1  0
  2  3  2  0
  3  4  1  0
  4  5  2  0
  5  6  1  0
  6  7  2  0
  7  2  1  0
 16 17  2  0
 17 18  1  0
 18 19  2  0
 19 21  1  0
 21 20  2  0
 20 16  1  0
M  END

$$$$
