No_781-gen_results/8p0m/2024-11-27-11-27-31/
     RDKit          3D

 34 38  0  0  0  0  0  0  0  0999 V2000
  -28.0162   -0.8135   28.8779 C   0  0  0  0  0  0  0  0  0  0  0  0
  -27.0636   -0.1189   28.6079 C   0  0  0  0  0  0  0  0  0  0  0  0
  -25.7923   -0.4302   29.0761 C   0  0  0  0  0  0  0  0  0  0  0  0
  -25.5756   -1.5654   29.9363 C   0  0  0  0  0  0  0  0  0  0  0  0
  -26.7354   -2.3004   30.2173 C   0  0  0  0  0  0  0  0  0  0  0  0
  -27.9184   -1.9537   29.7629 C   0  0  0  0  0  0  0  0  0  0  0  0
  -29.0001   -2.7012   30.1151 O   0  0  0  0  0  0  0  0  0  0  0  0
  -24.5290    0.3490   28.7998 C   0  0  0  0  0  0  0  0  0  0  0  0
  -23.3442    0.0060   29.1658 C   0  0  0  0  0  0  0  0  0  0  0  0
  -22.1783    0.7811   28.7783 C   0  0  0  0  0  0  0  0  0  0  0  0
  -22.3217    1.7499   27.7727 C   0  0  0  0  0  0  0  0  0  0  0  0
  -24.6102    1.3558   27.7479 C   0  0  0  0  0  0  0  0  0  0  0  0
  -23.5148    2.0341   27.3068 C   0  0  0  0  0  0  0  0  0  0  0  0
  -30.1256   -2.1340   30.5841 C   0  0  0  0  0  0  0  0  0  0  0  0
  -30.5730   -2.8381   31.6880 C   0  0  0  0  0  0  0  0  0  0  0  0
  -31.7524   -2.4439   32.1488 C   0  0  0  0  0  0  0  0  0  0  0  0
  -29.9465   -3.9463   32.3018 C   0  0  0  0  0  0  0  0  0  0  0  0
  -32.4476   -1.3123   31.6975 C   0  0  0  0  0  0  0  0  0  0  0  0
  -31.8896   -0.7264   30.5470 C   0  0  0  0  0  0  0  0  0  0  0  0
  -30.7101   -1.1053   29.9893 C   0  0  0  0  0  0  0  0  0  0  0  0
  -28.9535   -3.9160   32.6847 O   0  0  0  0  0  0  0  0  0  0  0  0
  -30.4442   -5.1314   31.8193 O   0  0  0  0  0  0  0  0  0  0  0  0
  -32.5927    0.5189   29.9473 C   0  0  0  0  0  0  0  0  0  0  0  0
  -32.4427    0.8703   28.8805 N   0  0  0  0  0  0  0  0  0  0  0  0
  -32.9281    1.9292   28.3623 C   0  0  0  0  0  0  0  0  0  0  0  0
  -33.0719    1.2965   30.8602 O   0  0  0  0  0  0  0  0  0  0  0  0
  -32.3897    2.4222   27.2296 C   0  0  0  0  0  0  0  0  0  0  0  0
  -31.7138    2.1766   26.5300 C   0  0  0  0  0  0  0  0  0  0  0  0
  -31.0395    0.8104   26.8990 C   0  0  0  0  0  0  0  0  0  0  0  0
  -31.3755    0.3015   28.0205 C   0  0  0  0  0  0  0  0  0  0  0  0
  -30.6184   -0.8409   28.6399 C   0  0  0  0  0  0  0  0  0  0  0  0
  -29.9581    0.2566   26.0104 C   0  0  0  0  0  0  0  0  0  0  0  0
  -28.9845    0.6836   25.9049 O   0  0  0  0  0  0  0  0  0  0  0  0
  -30.4328   -0.8077   25.4016 O   0  0  0  0  0  0  0  0  0  0  0  0
  6  7  1  0
  3  8  1  0
  7 14  1  0
 15 17  1  0
 17 21  2  0
 17 22  1  0
 19 23  1  0
 23 24  1  0
 24 25  1  0
 23 26  2  0
 27 28  1  0
 24 30  1  0
 29 30  1  0
 20 31  1  0
 30 31  1  0
 29 32  1  0
 32 33  2  0
 32 34  1  0
 25 27  1  0
 28 29  1  0
  1  2  2  0
  2  3  1  0
  3  4  2  0
  4  5  1  0
  5  6  2  0
  6  1  1  0
 14 15  2  0
 15 16  1  0
 16 18  2  0
 18 19  1  0
 19 20  2  0
 20 14  1  0
  8  9  2  0
  9 10  1  0
 10 11  2  0
 11 13  1  0
 13 12  2  0
 12  8  1  0
M  END

$$$$
