No_703-gen_results/8p0m/2024-11-27-11-27-31/
     RDKit          3D

 14 15  0  0  0  0  0  0  0  0999 V2000
  -28.1493   -0.8198   28.9079 Cl  0  0  0  0  0  0  0  0  0  0  0  0
  -27.8339    0.4961   29.0598 C   0  0  0  0  0  0  0  0  0  0  0  0
  -27.8833    1.0376   30.1944 F   0  0  0  0  0  0  0  0  0  0  0  0
  -27.4481    1.3047   27.9430 C   0  0  0  0  0  0  0  0  0  0  0  0
  -26.3904    1.3950   27.3668 C   0  0  0  0  0  0  0  0  0  0  0  0
  -25.1747    0.7266   27.8814 C   0  0  0  0  0  0  0  0  0  0  0  0
  -23.8968    0.9827   27.2563 C   0  0  0  0  0  0  0  0  0  0  0  0
  -22.6496    0.5616   27.8648 C   0  0  0  0  0  0  0  0  0  0  0  0
  -22.7378   -0.3867   28.9392 C   0  0  0  0  0  0  0  0  0  0  0  0
  -24.0064   -0.7920   29.3696 C   0  0  0  0  0  0  0  0  0  0  0  0
  -25.1223   -0.2238   28.9005 C   0  0  0  0  0  0  0  0  0  0  0  0
  -23.9499    2.0414   26.4175 N   0  0  0  0  0  0  0  0  0  0  0  0
  -26.1133    2.4046   26.3248 C   0  0  0  0  0  0  0  0  0  0  0  0
  -24.8891    2.7025   25.8583 C   0  0  0  0  0  0  0  0  0  0  0  0
  1  2  1  0
  2  3  1  0
  2  4  1  0
  4  5  1  0
  7  8  1  0
  8  9  2  0
  9 10  1  0
 10 11  2  0
 11  6  1  0
  5  6  2  0
  6  7  1  0
  7 12  2  0
 12 14  1  0
 14 13  2  0
 13  5  1  0
M  END

$$$$
