No_723-gen_results/8p0m/2024-11-27-11-27-31/
     RDKit          3D

 14 14  0  0  0  0  0  0  0  0999 V2000
  -28.0162   -0.8135   28.8779 C   0  0  0  0  0  0  0  0  0  0  0  0
  -27.0636   -0.1189   28.6079 C   0  0  0  0  0  0  0  0  0  0  0  0
  -26.9287    1.1713   29.0083 C   0  0  0  0  0  0  0  0  0  0  0  0
  -27.9560    1.7411   29.7840 C   0  0  0  0  0  0  0  0  0  0  0  0
  -28.7721   -0.4537   29.8696 C   0  0  0  0  0  0  0  0  0  0  0  0
  -28.8636    0.8725   30.2920 C   0  0  0  0  0  0  0  0  0  0  0  0
  -25.9426   -0.5482   27.6353 C   0  0  0  0  0  0  0  0  0  0  0  0
  -24.6802   -0.8446   28.3545 C   0  0  0  0  0  0  0  0  0  0  0  0
  -23.6145    0.0273   28.5309 C   0  0  0  0  0  0  0  0  0  0  0  0
  -22.5106   -0.2303   29.1325 C   0  0  0  0  0  0  0  0  0  0  0  0
  -22.4163   -1.5976   29.6541 C   0  0  0  0  0  0  0  0  0  0  0  0
  -24.4917   -2.1100   28.9893 C   0  0  0  0  0  0  0  0  0  0  0  0
  -23.3622   -2.4481   29.5685 C   0  0  0  0  0  0  0  0  0  0  0  0
  -25.7947   -3.2669   28.8578 Cl  0  0  0  0  0  0  0  0  0  0  0  0
  2  7  1  0
  7  8  1  0
  8  9  2  3
  9 10  1  0
 10 11  2  3
  8 12  1  0
 11 13  1  0
 12 14  1  0
  1  2  2  0
  2  3  1  0
  3  4  2  0
  4  6  1  0
  6  5  2  0
  5  1  1  0
M  END

$$$$
