No_7-gen_results/8p0m/2024-11-27-11-27-31/
     RDKit          3D

 11 11  0  0  0  0  0  0  0  0999 V2000
  -28.1493   -0.8198   28.9079 Cl  0  0  0  0  0  0  0  0  0  0  0  0
  -26.9116   -0.0797   28.9452 C   0  0  0  0  0  0  0  0  0  0  0  0
  -26.0490   -0.0718   27.8591 C   0  0  0  0  0  0  0  0  0  0  0  0
  -24.6574   -0.0370   27.9638 C   0  0  0  0  0  0  0  0  0  0  0  0
  -24.0330    0.3795   29.2055 C   0  0  0  0  0  0  0  0  0  0  0  0
  -22.6223    0.4812   29.3594 C   0  0  0  0  0  0  0  0  0  0  0  0
  -24.8488    0.6435   30.3921 C   0  0  0  0  0  0  0  0  0  0  0  0
  -26.6288    0.9337   29.9273 C   0  0  0  0  0  0  0  0  0  0  0  0
  -22.2919    1.3374   29.9696 F   0  0  0  0  0  0  0  0  0  0  0  0
  -22.0049    0.6042   28.1138 F   0  0  0  0  0  0  0  0  0  0  0  0
  -22.1581   -0.7044   29.8929 F   0  0  0  0  0  0  0  0  0  0  0  0
  1  2  1  0
  5  6  1  0
  6  9  1  0
  6 10  1  0
  6 11  1  0
  2  3  2  0
  3  4  1  0
  4  5  2  0
  5  7  1  0
  7  8  2  0
  8  2  1  0
M  END

$$$$
