No_774-gen_results/8p0m/2024-11-27-11-27-31/
     RDKit          3D

 21 22  0  0  0  0  0  0  0  0999 V2000
  -28.0162   -0.8135   28.8779 C   0  0  0  0  0  0  0  0  0  0  0  0
  -27.0636   -0.1189   28.6079 C   0  0  0  0  0  0  0  0  0  0  0  0
  -26.8756    1.1325   28.9134 C   0  0  0  0  0  0  0  0  0  0  0  0
  -25.6883    1.9515   28.5672 C   0  0  0  0  0  0  0  0  0  0  0  0
  -24.6394    1.2834   27.8753 C   0  0  0  0  0  0  0  0  0  0  0  0
  -24.8068   -0.0513   27.6040 C   0  0  0  0  0  0  0  0  0  0  0  0
  -25.9019   -0.7670   27.9511 C   0  0  0  0  0  0  0  0  0  0  0  0
  -29.2158   -0.1185   29.1813 C   0  0  0  0  0  0  0  0  0  0  0  0
  -29.2012    1.1767   29.4009 C   0  0  0  0  0  0  0  0  0  0  0  0
  -27.9952    1.9274   29.3121 C   0  0  0  0  0  0  0  0  0  0  0  0
  -23.3662    1.8999   27.5474 C   0  0  0  0  0  0  0  0  0  0  0  0
  -22.6480    2.3342   28.2257 O   0  0  0  0  0  0  0  0  0  0  0  0
  -23.0947    1.9523   26.1726 O   0  0  0  0  0  0  0  0  0  0  0  0
  -25.4919    3.3917   28.8779 C   0  0  0  0  0  0  0  0  0  0  0  0
  -25.9887    4.4615   28.4894 C   0  0  0  0  0  0  0  0  0  0  0  0
  -26.9195    4.4087   27.3640 C   0  0  0  0  0  0  0  0  0  0  0  0
  -25.5928    5.7846   28.9113 C   0  0  0  0  0  0  0  0  0  0  0  0
  -26.3581    6.4636   29.2788 N   0  0  0  0  0  0  0  0  0  0  0  0
  -26.0630    7.6322   29.9868 C   0  0  0  0  0  0  0  0  0  0  0  0
  -25.1877    8.2196   30.1466 Br  0  0  0  0  0  0  0  0  0  0  0  0
  -27.7168    8.2720   30.7490 Cl  0  0  0  0  0  0  0  0  0  0  0  0
  3  4  1  0
  4  5  1  0
  5  6  1  0
  2  7  1  0
  6  7  1  0
  5 11  1  0
 11 12  2  0
 11 13  1  0
  4 14  1  0
 14 15  2  3
 15 16  1  0
 15 17  1  0
 17 18  2  3
 18 19  1  0
 19 20  1  0
 19 21  1  0
  1  2  2  0
  2  3  1  0
  3 10  2  0
 10  9  1  0
  9  8  2  0
  8  1  1  0
M  END

$$$$
