No_761-gen_results/8p0m/2024-11-27-11-27-31/
     RDKit          3D

 15 16  0  0  0  0  0  0  0  0999 V2000
  -28.0162   -0.8135   28.8779 C   0  0  0  0  0  0  0  0  0  0  0  0
  -27.0636   -0.1189   28.6079 C   0  0  0  0  0  0  0  0  0  0  0  0
  -25.7923   -0.4302   29.0761 C   0  0  0  0  0  0  0  0  0  0  0  0
  -24.5456    0.3494   28.8225 C   0  0  0  0  0  0  0  0  0  0  0  0
  -23.2409    0.0217   29.3323 C   0  0  0  0  0  0  0  0  0  0  0  0
  -28.1914   -1.2584   30.0884 C   0  0  0  0  0  0  0  0  0  0  0  0
  -27.0146   -1.7105   30.8278 C   0  0  0  0  0  0  0  0  0  0  0  0
  -25.7836   -1.1022   30.4102 C   0  0  0  0  0  0  0  0  0  0  0  0
  -22.1179    0.6538   28.8263 C   0  0  0  0  0  0  0  0  0  0  0  0
  -22.1294    1.5163   27.7505 C   0  0  0  0  0  0  0  0  0  0  0  0
  -24.4972    1.2247   27.6430 C   0  0  0  0  0  0  0  0  0  0  0  0
  -23.3390    1.8087   27.2011 C   0  0  0  0  0  0  0  0  0  0  0  0
  -29.4285   -1.9848   30.5718 C   0  0  0  0  0  0  0  0  0  0  0  0
  -29.5965   -3.0848   30.8206 O   0  0  0  0  0  0  0  0  0  0  0  0
  -30.4729   -1.1563   30.6927 O   0  0  0  0  0  0  0  0  0  0  0  0
  3  4  1  0
  6 13  1  0
 13 14  2  0
 13 15  1  0
  1  2  2  0
  2  3  1  0
  3  8  2  0
  8  7  1  0
  7  6  2  0
  6  1  1  0
  4  5  2  0
  5  9  1  0
  9 10  2  0
 10 12  1  0
 12 11  2  0
 11  4  1  0
M  END

$$$$
