No_755-gen_results/8p0m/2024-11-27-11-27-31/
     RDKit          3D

 15 16  0  0  0  0  0  0  0  0999 V2000
  -28.0162   -0.8135   28.8779 C   0  0  0  0  0  0  0  0  0  0  0  0
  -27.0636   -0.1190   28.6079 C   0  0  0  0  0  0  0  0  0  0  0  0
  -25.7923   -0.4302   29.0761 C   0  0  0  0  0  0  0  0  0  0  0  0
  -24.5456    0.3494   28.8225 C   0  0  0  0  0  0  0  0  0  0  0  0
  -23.2409    0.0217   29.3323 C   0  0  0  0  0  0  0  0  0  0  0  0
  -28.1914   -1.2584   30.0884 C   0  0  0  0  0  0  0  0  0  0  0  0
  -27.0146   -1.7105   30.8278 C   0  0  0  0  0  0  0  0  0  0  0  0
  -25.7836   -1.1022   30.4102 C   0  0  0  0  0  0  0  0  0  0  0  0
  -22.1136    0.6558   28.8215 C   0  0  0  0  0  0  0  0  0  0  0  0
  -22.1448    1.5150   27.7429 C   0  0  0  0  0  0  0  0  0  0  0  0
  -24.5131    1.2154   27.6444 C   0  0  0  0  0  0  0  0  0  0  0  0
  -23.3528    1.8069   27.1985 C   0  0  0  0  0  0  0  0  0  0  0  0
  -29.2978   -1.9181   30.4917 F   0  0  0  0  0  0  0  0  0  0  0  0
  -23.4456    2.7180   26.0460 C   0  0  0  0  0  0  0  0  0  0  0  0
  -24.0650    3.6044   25.6643 N   0  0  0  0  0  0  0  0  0  0  0  0
  3  4  1  0
  6 13  1  0
 12 14  1  0
 14 15  2  0
  1  2  2  0
  2  3  1  0
  3  8  2  0
  8  7  1  0
  7  6  2  0
  6  1  1  0
  4  5  2  0
  5  9  1  0
  9 10  2  0
 10 12  1  0
 12 11  2  0
 11  4  1  0
M  END

$$$$
