No_778-gen_results/8p0m/2024-11-27-11-27-31/
     RDKit          3D

 13 14  0  0  0  0  0  0  0  0999 V2000
  -28.0162   -0.8135   28.8779 C   0  0  0  0  0  0  0  0  0  0  0  0
  -27.0636   -0.1189   28.6079 C   0  0  0  0  0  0  0  0  0  0  0  0
  -25.7647   -0.3897   29.0360 C   0  0  0  0  0  0  0  0  0  0  0  0
  -24.5516    0.4058   28.7646 C   0  0  0  0  0  0  0  0  0  0  0  0
  -23.2300    0.1178   29.2575 C   0  0  0  0  0  0  0  0  0  0  0  0
  -22.1393    0.9427   28.9224 C   0  0  0  0  0  0  0  0  0  0  0  0
  -27.8294   -1.9287   29.8545 C   0  0  0  0  0  0  0  0  0  0  0  0
  -26.5882   -2.3272   30.2682 C   0  0  0  0  0  0  0  0  0  0  0  0
  -25.4565   -1.5432   29.9146 C   0  0  0  0  0  0  0  0  0  0  0  0
  -22.1875    1.5657   27.6553 C   0  0  0  0  0  0  0  0  0  0  0  0
  -24.5191    1.3416   27.6305 C   0  0  0  0  0  0  0  0  0  0  0  0
  -23.3893    1.9351   27.1614 C   0  0  0  0  0  0  0  0  0  0  0  0
  -29.1754   -2.8919   30.3083 Cl  0  0  0  0  0  0  0  0  0  0  0  0
  3  4  1  0
  7 13  1  0
  1  2  2  0
  2  3  1  0
  3  9  2  0
  9  8  1  0
  8  7  2  0
  7  1  1  0
  4  5  2  0
  5  6  1  0
  6 10  2  0
 10 12  1  0
 12 11  2  0
 11  4  1  0
M  END

$$$$
