No_754-gen_results/8p0m/2024-11-27-11-27-31/
     RDKit          3D

 23 26  0  0  0  0  0  0  0  0999 V2000
  -28.0162   -0.8135   28.8779 C   0  0  0  0  0  0  0  0  0  0  0  0
  -28.4690   -0.7850   29.8287 C   0  0  0  0  0  0  0  0  0  0  0  0
  -28.1960    0.3478   28.0550 C   0  0  0  0  0  0  0  0  0  0  0  0
  -27.4421    0.5100   26.7946 C   0  0  0  0  0  0  0  0  0  0  0  0
  -26.1689   -0.0794   26.6787 C   0  0  0  0  0  0  0  0  0  0  0  0
  -25.7312   -0.9607   27.6875 C   0  0  0  0  0  0  0  0  0  0  0  0
  -26.5043   -1.2222   28.7582 C   0  0  0  0  0  0  0  0  0  0  0  0
  -28.3432   -2.0040   30.7789 C   0  0  0  0  0  0  0  0  0  0  0  0
  -27.1022   -2.6901   30.6797 C   0  0  0  0  0  0  0  0  0  0  0  0
  -26.1200   -2.3552   29.6514 C   0  0  0  0  0  0  0  0  0  0  0  0
  -24.9752   -3.1271   29.4458 C   0  0  0  0  0  0  0  0  0  0  0  0
  -23.8019   -2.6251   29.0905 C   0  0  0  0  0  0  0  0  0  0  0  0
  -25.2051   -4.5220   29.3429 C   0  0  0  0  0  0  0  0  0  0  0  0
  -24.1520   -5.3866   28.9769 C   0  0  0  0  0  0  0  0  0  0  0  0
  -23.0959   -4.6961   28.3331 C   0  0  0  0  0  0  0  0  0  0  0  0
  -22.9411   -3.3595   28.5343 C   0  0  0  0  0  0  0  0  0  0  0  0
  -27.8181    1.4621   25.7561 C   0  0  0  0  0  0  0  0  0  0  0  0
  -29.1299    1.6060   25.5368 C   0  0  0  0  0  0  0  0  0  0  0  0
  -29.5059    2.4939   24.4919 C   0  0  0  0  0  0  0  0  0  0  0  0
  -30.8293    2.7854   24.2422 C   0  0  0  0  0  0  0  0  0  0  0  0
  -31.7877    2.0348   24.8908 C   0  0  0  0  0  0  0  0  0  0  0  0
  -31.4584    1.1539   25.8555 C   0  0  0  0  0  0  0  0  0  0  0  0
  -30.1918    0.9536   26.1871 C   0  0  0  0  0  0  0  0  0  0  0  0
 10 11  1  0
  4 17  1  0
 17 18  1  0
 18 19  2  0
 19 20  1  0
 20 21  2  0
 21 22  1  0
 22 23  2  0
 23 18  1  0
  1  2  2  0
  2  8  1  0
  8  9  2  0
  9 10  1  0
 10  7  2  0
 11 12  2  0
 12 16  1  0
 16 15  2  0
 15 14  1  0
 14 13  2  0
 13 11  1  0
  1  3  1  0
  3  4  2  0
  4  5  1  0
  5  6  2  0
  6  7  1  0
  7  1  1  0
M  END

$$$$
