No_750-gen_results/8p0m/2024-11-27-11-27-31/
     RDKit          3D

 23 25  0  0  0  0  0  0  0  0999 V2000
  -28.0162   -0.8135   28.8779 C   0  0  0  0  0  0  0  0  0  0  0  0
  -27.0636   -0.1189   28.6079 C   0  0  0  0  0  0  0  0  0  0  0  0
  -26.8756    1.1325   28.9134 C   0  0  0  0  0  0  0  0  0  0  0  0
  -25.6883    1.9515   28.5672 C   0  0  0  0  0  0  0  0  0  0  0  0
  -25.5093    3.3042   28.8859 C   0  0  0  0  0  0  0  0  0  0  0  0
  -29.0972   -0.2347   29.6994 C   0  0  0  0  0  0  0  0  0  0  0  0
  -29.0303    1.0730   30.0324 C   0  0  0  0  0  0  0  0  0  0  0  0
  -27.8549    1.8594   29.6796 C   0  0  0  0  0  0  0  0  0  0  0  0
  -24.3739    1.2751   28.8644 C   0  0  0  0  0  0  0  0  0  0  0  0
  -23.2500    1.6714   28.0617 C   0  0  0  0  0  0  0  0  0  0  0  0
  -22.0161    1.0902   28.6245 C   0  0  0  0  0  0  0  0  0  0  0  0
  -24.1711    0.2378   29.7532 C   0  0  0  0  0  0  0  0  0  0  0  0
  -22.9739   -0.3995   30.0424 C   0  0  0  0  0  0  0  0  0  0  0  0
  -21.8256    0.1225   29.4015 C   0  0  0  0  0  0  0  0  0  0  0  0
  -25.4340    4.2700   27.7020 C   0  0  0  0  0  0  0  0  0  0  0  0
  -25.5780    3.9518   30.1496 C   0  0  0  0  0  0  0  0  0  0  0  0
  -25.5628    5.2920   30.3477 C   0  0  0  0  0  0  0  0  0  0  0  0
  -25.5038    6.1584   29.2270 C   0  0  0  0  0  0  0  0  0  0  0  0
  -25.3995    5.6416   27.9668 C   0  0  0  0  0  0  0  0  0  0  0  0
  -25.4171    7.6248   29.4011 C   0  0  0  0  0  0  0  0  0  0  0  0
  -25.1047    8.1779   30.5020 N   0  0  0  0  0  0  0  0  0  0  0  0
  -25.6129    8.3933   28.3802 O   0  0  0  0  0  0  0  0  0  0  0  0
  -24.8016    7.4950   31.6984 C   0  0  0  0  0  0  0  0  0  0  0  0
  3  4  1  0
  4  5  1  0
  4  9  1  0
 18 20  1  0
 20 21  1  0
 20 22  2  0
 21 23  1  0
  9 10  2  0
 10 11  1  0
 11 14  2  0
 14 13  1  0
 13 12  2  0
 12  9  1  0
  1  2  2  0
  2  3  1  0
  3  8  2  0
  8  7  1  0
  7  6  2  0
  6  1  1  0
  5 15  2  0
 15 19  1  0
 19 18  2  0
 18 17  1  0
 17 16  2  0
 16  5  1  0
M  END

$$$$
