No_751-gen_results/8p0m/2024-11-27-11-27-31/
     RDKit          3D

 12 13  0  0  0  0  0  0  0  0999 V2000
  -28.0162   -0.8135   28.8779 C   0  0  0  0  0  0  0  0  0  0  0  0
  -27.0636   -0.1189   28.6079 C   0  0  0  0  0  0  0  0  0  0  0  0
  -25.7923   -0.4302   29.0761 C   0  0  0  0  0  0  0  0  0  0  0  0
  -25.5314   -1.5876   29.6105 C   0  0  0  0  0  0  0  0  0  0  0  0
  -26.6366   -2.4336   29.9654 C   0  0  0  0  0  0  0  0  0  0  0  0
  -27.8411   -2.0285   29.6196 C   0  0  0  0  0  0  0  0  0  0  0  0
  -27.1742    1.2220   27.9238 C   0  0  0  0  0  0  0  0  0  0  0  0
  -26.3167    1.6337   27.1176 C   0  0  0  0  0  0  0  0  0  0  0  0
  -26.3857    2.8765   26.3990 C   0  0  0  0  0  0  0  0  0  0  0  0
  -27.5645    3.6467   26.5096 C   0  0  0  0  0  0  0  0  0  0  0  0
  -28.5237    3.1587   27.3269 C   0  0  0  0  0  0  0  0  0  0  0  0
  -28.3984    1.9635   28.0540 C   0  0  0  0  0  0  0  0  0  0  0  0
  2  7  1  0
  1  2  2  0
  2  3  1  0
  3  4  2  0
  4  5  1  0
  5  6  2  0
  6  1  1  0
  7  8  2  0
  8  9  1  0
  9 10  2  0
 10 11  1  0
 11 12  2  0
 12  7  1  0
M  END

$$$$
