No_741-gen_results/8p0m/2024-11-27-11-27-31/
     RDKit          3D

 15 17  0  0  0  0  0  0  0  0999 V2000
  -28.0162   -0.8135   28.8779 C   0  0  0  0  0  0  0  0  0  0  0  0
  -27.0636   -0.1190   28.6079 C   0  0  0  0  0  0  0  0  0  0  0  0
  -25.7647   -0.3897   29.0360 C   0  0  0  0  0  0  0  0  0  0  0  0
  -24.5516    0.4058   28.7646 C   0  0  0  0  0  0  0  0  0  0  0  0
  -24.6957    1.4480   27.7988 C   0  0  0  0  0  0  0  0  0  0  0  0
  -25.9755    1.7250   27.3077 C   0  0  0  0  0  0  0  0  0  0  0  0
  -27.0718    1.0134   27.6535 C   0  0  0  0  0  0  0  0  0  0  0  0
  -29.2260   -0.0677   29.3149 C   0  0  0  0  0  0  0  0  0  0  0  0
  -30.4902   -0.7298   29.1812 C   0  0  0  0  0  0  0  0  0  0  0  0
  -23.6257    2.1270   27.5210 F   0  0  0  0  0  0  0  0  0  0  0  0
  -31.3928   -0.2486   28.4101 C   0  0  0  0  0  0  0  0  0  0  0  0
  -31.3023    1.0751   27.9262 C   0  0  0  0  0  0  0  0  0  0  0  0
  -30.1996    1.8259   28.2851 C   0  0  0  0  0  0  0  0  0  0  0  0
  -29.1604    1.1190   28.4483 C   0  0  0  0  0  0  0  0  0  0  0  0
  -28.0248    1.6231   27.8494 C   0  0  0  0  0  0  0  0  0  0  0  0
  5 10  1  0
  2  3  1  0
  3  4  2  0
  4  5  1  0
  5  6  2  0
  6  7  1  0
  8  9  2  0
  9 11  1  0
 11 12  2  0
 12 13  1  0
 13 14  2  0
  1  2  2  0
  2  7  1  0
  7 15  2  0
 15 14  1  0
 14  8  1  0
  8  1  1  0
M  END

$$$$
