No_73-gen_results/8p0m/2024-11-27-11-27-31/
     RDKit          3D

 13 13  0  0  0  0  0  0  0  0999 V2000
  -28.0162   -0.8135   28.8779 C   0  0  0  0  0  0  0  0  0  0  0  0
  -28.4690   -0.7850   29.8287 C   0  0  0  0  0  0  0  0  0  0  0  0
  -27.0871    0.2903   28.6377 C   0  0  0  0  0  0  0  0  0  0  0  0
  -26.8317    1.2487   29.5869 C   0  0  0  0  0  0  0  0  0  0  0  0
  -29.4442   -1.9481   30.1840 C   0  0  0  0  0  0  0  0  0  0  0  0
  -27.4956    1.1303   30.8222 C   0  0  0  0  0  0  0  0  0  0  0  0
  -28.3376    0.0364   31.0331 C   0  0  0  0  0  0  0  0  0  0  0  0
  -29.9240   -2.0487   31.4096 N   0  0  0  0  0  0  0  0  0  0  0  0
  -26.3177    0.4339   27.3368 C   0  0  0  0  0  0  0  0  0  0  0  0
  -25.1670    0.9017   27.2176 C   0  0  0  0  0  0  0  0  0  0  0  0
  -24.4579    1.0683   26.0398 C   0  0  0  0  0  0  0  0  0  0  0  0
  -23.2251    1.7607   25.9822 C   0  0  0  0  0  0  0  0  0  0  0  0
  -22.6662    2.2134   27.1921 C   0  0  0  0  0  0  0  0  0  0  0  0
  2  5  1  0
  5  8  1  0
  3  9  1  0
  9 10  2  3
 10 11  1  0
 11 12  2  3
 12 13  1  0
  1  2  2  0
  2  7  1  0
  7  6  2  0
  6  4  1  0
  4  3  2  0
  3  1  1  0
M  END

$$$$
