No_756-gen_results/8p0m/2024-11-27-11-27-31/
     RDKit          3D

 24 26  0  0  0  0  0  0  0  0999 V2000
  -28.0162   -0.8135   28.8779 C   0  0  0  0  0  0  0  0  0  0  0  0
  -27.0636   -0.1189   28.6079 C   0  0  0  0  0  0  0  0  0  0  0  0
  -25.7923   -0.4302   29.0761 C   0  0  0  0  0  0  0  0  0  0  0  0
  -25.5756   -1.5654   29.9363 C   0  0  0  0  0  0  0  0  0  0  0  0
  -26.7354   -2.3004   30.2173 C   0  0  0  0  0  0  0  0  0  0  0  0
  -27.9184   -1.9537   29.7629 C   0  0  0  0  0  0  0  0  0  0  0  0
  -29.0001   -2.7012   30.1151 O   0  0  0  0  0  0  0  0  0  0  0  0
  -24.5290    0.3490   28.7998 C   0  0  0  0  0  0  0  0  0  0  0  0
  -24.4808    1.2113   27.7998 C   0  0  0  0  0  0  0  0  0  0  0  0
  -24.9784    1.6802   27.0516 C   0  0  0  0  0  0  0  0  0  0  0  0
  -26.3751    1.2826   26.7915 C   0  0  0  0  0  0  0  0  0  0  0  0
  -27.1467    0.5658   27.5765 C   0  0  0  0  0  0  0  0  0  0  0  0
  -22.9693    1.6947   27.8964 O   0  0  0  0  0  0  0  0  0  0  0  0
  -22.3121    1.6290   29.0719 C   0  0  0  0  0  0  0  0  0  0  0  0
  -23.4656    0.2028   29.7555 C   0  0  0  0  0  0  0  0  0  0  0  0
  -30.0839   -2.1179   30.6468 C   0  0  0  0  0  0  0  0  0  0  0  0
  -31.1968   -2.5730   30.1073 C   0  0  0  0  0  0  0  0  0  0  0  0
  -31.9120   -1.8822   29.4746 O   0  0  0  0  0  0  0  0  0  0  0  0
  -31.8738   -3.4060   30.9193 F   0  0  0  0  0  0  0  0  0  0  0  0
  -30.0075   -2.4271   32.1224 O   0  0  0  0  0  0  0  0  0  0  0  0
  -32.1930   -1.7733   27.8488 P   0  0  0  0  0  0  0  0  0  0  0  0
  -33.7218   -1.2687   27.6251 O   0  0  0  0  0  0  0  0  0  0  0  0
  -31.2805   -0.7543   27.2627 O   0  0  0  0  0  0  0  0  0  0  0  0
  -32.0244   -3.1237   27.2709 O   0  0  0  0  0  0  0  0  0  0  0  0
  6  7  1  0
  3  8  1  0
  8  9  1  0
  9 10  2  0
 10 11  1  0
  2 12  1  0
 11 12  2  0
  9 13  1  0
 13 14  1  0
  8 15  1  0
 14 15  1  0
  7 16  1  0
 16 17  1  0
 17 18  1  0
 17 19  1  0
 16 20  1  0
 18 21  1  0
 21 22  1  0
 21 23  2  0
 21 24  1  0
  1  2  2  0
  2  3  1  0
  3  4  2  0
  4  5  1  0
  5  6  2  0
  6  1  1  0
M  END

$$$$
