No_784-gen_results/8p0m/2024-11-27-11-27-31/
     RDKit          3D

 16 17  0  0  0  0  0  0  0  0999 V2000
  -28.0162   -0.8135   28.8779 C   0  0  0  0  0  0  0  0  0  0  0  0
  -27.0636   -0.1190   28.6079 C   0  0  0  0  0  0  0  0  0  0  0  0
  -26.9716    0.7139   27.5060 C   0  0  0  0  0  0  0  0  0  0  0  0
  -28.1053    0.7744   26.6421 C   0  0  0  0  0  0  0  0  0  0  0  0
  -29.2008    0.1044   27.0527 C   0  0  0  0  0  0  0  0  0  0  0  0
  -29.2096   -0.6029   28.1853 C   0  0  0  0  0  0  0  0  0  0  0  0
  -30.3702    0.2264   26.1604 C   0  0  0  0  0  0  0  0  0  0  0  0
  -30.9870    1.1892   26.1601 O   0  0  0  0  0  0  0  0  0  0  0  0
  -30.4768   -0.7090   25.2126 O   0  0  0  0  0  0  0  0  0  0  0  0
  -25.6998   -0.2105   29.4319 C   0  0  0  0  0  0  0  0  0  0  0  0
  -25.4930   -0.8298   30.2336 C   0  0  0  0  0  0  0  0  0  0  0  0
  -24.4583   -1.0579   30.8719 C   0  0  0  0  0  0  0  0  0  0  0  0
  -23.2277   -0.3046   30.6077 C   0  0  0  0  0  0  0  0  0  0  0  0
  -23.3737    0.5299   29.5534 C   0  0  0  0  0  0  0  0  0  0  0  0
  -24.6328    0.6602   28.8470 C   0  0  0  0  0  0  0  0  0  0  0  0
  -22.3188    1.2563   29.1735 F   0  0  0  0  0  0  0  0  0  0  0  0
  5  7  1  0
  7  8  1  0
  7  9  2  0
  2 10  1  0
 14 16  1  0
  1  2  2  0
  2  3  1  0
  3  4  2  0
  4  5  1  0
  5  6  2  0
  6  1  1  0
 10 11  2  0
 11 12  1  0
 12 13  2  0
 13 14  1  0
 14 15  2  0
 15 10  1  0
M  END

$$$$
