No_78-gen_results/8p0m/2024-11-27-11-27-31/
     RDKit          3D

 13 14  0  0  0  0  0  0  0  0999 V2000
  -28.0162   -0.8135   28.8779 C   0  0  0  0  0  0  0  0  0  0  0  0
  -27.0636   -0.1190   28.6079 C   0  0  0  0  0  0  0  0  0  0  0  0
  -26.8756    1.1325   28.9134 C   0  0  0  0  0  0  0  0  0  0  0  0
  -27.9014    1.8066   29.6436 C   0  0  0  0  0  0  0  0  0  0  0  0
  -28.9449    1.0388   30.0360 C   0  0  0  0  0  0  0  0  0  0  0  0
  -29.0273   -0.2890   29.7051 C   0  0  0  0  0  0  0  0  0  0  0  0
  -25.6959    1.9505   28.4764 C   0  0  0  0  0  0  0  0  0  0  0  0
  -25.0986    1.9116   27.6630 N   0  0  0  0  0  0  0  0  0  0  0  0
  -24.8078    1.1555   26.8348 C   0  0  0  0  0  0  0  0  0  0  0  0
  -23.8515    1.4008   25.7600 C   0  0  0  0  0  0  0  0  0  0  0  0
  -24.3262    3.0973   27.1686 C   0  0  0  0  0  0  0  0  0  0  0  0
  -23.5082    2.7182   25.9959 C   0  0  0  0  0  0  0  0  0  0  0  0
  -25.0318    2.4068   29.7308 O   0  0  0  0  0  0  0  0  0  0  0  0
  3  7  1  0
  7  8  1  0
  8  9  1  0
  9 10  2  0
  8 11  1  0
 10 12  1  0
 11 12  2  0
  7 13  2  0
  1  2  2  0
  2  3  1  0
  3  4  2  0
  4  5  1  0
  5  6  2  0
  6  1  1  0
M  END

$$$$
