No_767-gen_results/8p0m/2024-11-27-11-27-31/
     RDKit          3D

 17 19  0  0  0  0  0  0  0  0999 V2000
  -28.0162   -0.8135   28.8779 C   0  0  0  0  0  0  0  0  0  0  0  0
  -28.4690   -0.7850   29.8287 C   0  0  0  0  0  0  0  0  0  0  0  0
  -28.1960    0.3478   28.0550 C   0  0  0  0  0  0  0  0  0  0  0  0
  -27.4421    0.5100   26.7946 C   0  0  0  0  0  0  0  0  0  0  0  0
  -26.1689   -0.0794   26.6787 C   0  0  0  0  0  0  0  0  0  0  0  0
  -25.7312   -0.9607   27.6875 C   0  0  0  0  0  0  0  0  0  0  0  0
  -26.5043   -1.2222   28.7582 C   0  0  0  0  0  0  0  0  0  0  0  0
  -29.5802   -0.2435   30.2170 C   0  0  0  0  0  0  0  0  0  0  0  0
  -30.0568    0.7240   29.3104 C   0  0  0  0  0  0  0  0  0  0  0  0
  -29.3596    1.0531   28.1223 C   0  0  0  0  0  0  0  0  0  0  0  0
  -29.9395    2.2793   26.9243 Br  0  0  0  0  0  0  0  0  0  0  0  0
  -25.9760   -2.2257   29.6349 N   0  0  0  0  0  0  0  0  0  0  0  0
  -25.0167   -3.0762   29.1893 C   0  0  0  0  0  0  0  0  0  0  0  0
  -25.2299   -4.3687   28.8969 C   0  0  0  0  0  0  0  0  0  0  0  0
  -24.1148   -5.0537   28.5216 N   0  0  0  0  0  0  0  0  0  0  0  0
  -23.7376   -2.6925   28.8241 C   0  0  0  0  0  0  0  0  0  0  0  0
  -23.2136   -3.8889   28.4570 N   0  0  0  0  0  0  0  0  0  0  0  0
  3  4  1  0
  4  5  1  0
  5  6  1  0
  1  7  1  0
  6  7  1  0
 10 11  1  0
  7 12  2  3
 12 13  1  0
 13 14  1  0
 14 15  2  0
 13 16  1  0
 15 17  1  0
 16 17  2  0
  1  2  2  0
  2  8  1  0
  8  9  2  0
  9 10  1  0
 10  3  2  0
  3  1  1  0
M  END

$$$$
