No_724-gen_results/8p0m/2024-11-27-11-27-31/
     RDKit          3D

 24 27  0  0  0  0  0  0  0  0999 V2000
  -28.0162   -0.8135   28.8779 C   0  0  0  0  0  0  0  0  0  0  0  0
  -28.4690   -0.7850   29.8287 C   0  0  0  0  0  0  0  0  0  0  0  0
  -26.5042   -0.7777   28.8766 C   0  0  0  0  0  0  0  0  0  0  0  0
  -25.8103   -0.8531   30.1028 C   0  0  0  0  0  0  0  0  0  0  0  0
  -27.9906   -0.8916   31.2257 C   0  0  0  0  0  0  0  0  0  0  0  0
  -26.6042   -0.8676   31.2652 C   0  0  0  0  0  0  0  0  0  0  0  0
  -24.4436   -0.6734   29.9745 C   0  0  0  0  0  0  0  0  0  0  0  0
  -23.6862   -1.4455   30.5677 C   0  0  0  0  0  0  0  0  0  0  0  0
  -23.8402    0.4116   29.2892 C   0  0  0  0  0  0  0  0  0  0  0  0
  -22.4489    0.5198   29.1495 C   0  0  0  0  0  0  0  0  0  0  0  0
  -21.5993   -0.4865   29.6993 C   0  0  0  0  0  0  0  0  0  0  0  0
  -22.2042   -1.4529   30.5017 C   0  0  0  0  0  0  0  0  0  0  0  0
  -30.3213   -0.8219   29.8410 Cl  0  0  0  0  0  0  0  0  0  0  0  0
  -25.9973   -0.6358   27.6516 N   0  0  0  0  0  0  0  0  0  0  0  0
  -26.3014    0.2051   26.6397 C   0  0  0  0  0  0  0  0  0  0  0  0
  -25.7862    0.8241   25.9856 C   0  0  0  0  0  0  0  0  0  0  0  0
  -27.8225    0.2470   26.4250 C   0  0  0  0  0  0  0  0  0  0  0  0
  -28.2716    0.9598   25.3380 C   0  0  0  0  0  0  0  0  0  0  0  0
  -24.1323    0.8432   26.1268 C   0  0  0  0  0  0  0  0  0  0  0  0
  -27.3933    1.6688   24.5764 C   0  0  0  0  0  0  0  0  0  0  0  0
  -26.1025    1.6688   24.8386 C   0  0  0  0  0  0  0  0  0  0  0  0
  -21.8407    1.5763   28.3151 C   0  0  0  0  0  0  0  0  0  0  0  0
  -21.6291    1.6553   27.0166 N   0  0  0  0  0  0  0  0  0  0  0  0
  -22.8648    1.6113   26.1673 C   0  0  0  0  0  0  0  0  0  0  0  0
  4  7  1  0
  2 13  1  0
  3 14  1  0
 14 15  1  0
 16 19  1  0
 10 22  1  0
 22 23  1  0
 19 24  2  3
 23 24  1  0
 15 16  2  0
 16 21  1  0
 21 20  2  0
 20 18  1  0
 18 17  2  0
 17 15  1  0
  7  8  2  0
  8 12  1  0
 12 11  2  0
 11 10  1  0
 10  9  2  0
  9  7  1  0
  1  2  2  0
  2  5  1  0
  5  6  2  0
  6  4  1  0
  4  3  2  0
  3  1  1  0
M  END

$$$$
