No_716-gen_results/8p0m/2024-11-27-11-27-31/
     RDKit          3D

 13 14  0  0  0  0  0  0  0  0999 V2000
  -28.0162   -0.8135   28.8779 C   0  0  0  0  0  0  0  0  0  0  0  0
  -27.0636   -0.1189   28.6079 C   0  0  0  0  0  0  0  0  0  0  0  0
  -25.7647   -0.3897   29.0360 C   0  0  0  0  0  0  0  0  0  0  0  0
  -25.5296   -1.5302   29.9014 C   0  0  0  0  0  0  0  0  0  0  0  0
  -26.4408   -2.2130   30.0940 C   0  0  0  0  0  0  0  0  0  0  0  0
  -27.7549   -1.9968   29.7465 C   0  0  0  0  0  0  0  0  0  0  0  0
  -24.5585    0.5005   28.7224 C   0  0  0  0  0  0  0  0  0  0  0  0
  -24.5229    1.2715   27.7066 C   0  0  0  0  0  0  0  0  0  0  0  0
  -23.3433    2.0138   27.3659 C   0  0  0  0  0  0  0  0  0  0  0  0
  -22.1536    1.8332   28.0055 C   0  0  0  0  0  0  0  0  0  0  0  0
  -23.2962    0.2543   29.4319 C   0  0  0  0  0  0  0  0  0  0  0  0
  -22.1178    0.9314   29.0570 C   0  0  0  0  0  0  0  0  0  0  0  0
  -28.7708   -2.7948   30.0909 F   0  0  0  0  0  0  0  0  0  0  0  0
  3  7  1  0
  6 13  1  0
  7  8  2  0
  8  9  1  0
  9 10  2  0
 10 12  1  0
 12 11  2  0
 11  7  1  0
  1  2  2  0
  2  3  1  0
  3  4  2  0
  4  5  1  0
  5  6  2  0
  6  1  1  0
M  END

$$$$
