No_773-gen_results/8p0m/2024-11-27-11-27-31/
     RDKit          3D

 19 20  0  0  0  0  0  0  0  0999 V2000
  -28.0162   -0.8135   28.8779 C   0  0  0  0  0  0  0  0  0  0  0  0
  -27.0636   -0.1189   28.6079 C   0  0  0  0  0  0  0  0  0  0  0  0
  -26.9716    0.7139   27.5060 C   0  0  0  0  0  0  0  0  0  0  0  0
  -28.1053    0.7744   26.6421 C   0  0  0  0  0  0  0  0  0  0  0  0
  -29.2041    0.1179   27.0477 C   0  0  0  0  0  0  0  0  0  0  0  0
  -29.2127   -0.6088   28.1281 C   0  0  0  0  0  0  0  0  0  0  0  0
  -30.3709    0.2326   26.1381 C   0  0  0  0  0  0  0  0  0  0  0  0
  -30.2836    0.1310   24.9011 N   0  0  0  0  0  0  0  0  0  0  0  0
  -31.4733   -0.8149   26.5816 C   0  0  0  0  0  0  0  0  0  0  0  0
  -31.0475    1.6828   26.4264 C   0  0  0  0  0  0  0  0  0  0  0  0
  -25.8151    1.3412   27.1504 F   0  0  0  0  0  0  0  0  0  0  0  0
  -28.0642   -1.6787   30.1583 C   0  0  0  0  0  0  0  0  0  0  0  0
  -28.5375   -1.4547   31.1075 O   0  0  0  0  0  0  0  0  0  0  0  0
  -27.4167   -2.8630   29.9218 O   0  0  0  0  0  0  0  0  0  0  0  0
  -31.8031   -0.9518   27.6588 O   0  0  0  0  0  0  0  0  0  0  0  0
  -32.0941   -1.3323   25.6198 O   0  0  0  0  0  0  0  0  0  0  0  0
  -31.1013    2.4502   25.5103 C   0  0  0  0  0  0  0  0  0  0  0  0
  -30.6802    2.1722   24.1938 C   0  0  0  0  0  0  0  0  0  0  0  0
  -30.1939    0.9830   23.9245 C   0  0  0  0  0  0  0  0  0  0  0  0
  5  7  1  0
  7  8  1  0
  7  9  1  0
  7 10  1  0
  3 11  1  0
  1 12  1  0
 12 13  2  0
 12 14  1  0
  9 15  1  0
  9 16  2  0
 17 18  1  0
  8 19  1  0
 19 18  1  0
 17 10  1  0
  1  2  2  0
  2  3  1  0
  3  4  2  0
  4  5  1  0
  5  6  2  0
  6  1  1  0
M  END

$$$$
