No_705-gen_results/8p0m/2024-11-27-11-27-31/
     RDKit          3D

 35 38  0  0  0  0  0  0  0  0999 V2000
  -28.0162   -0.8135   28.8779 C   0  0  0  0  0  0  0  0  0  0  0  0
  -27.0636   -0.1189   28.6079 C   0  0  0  0  0  0  0  0  0  0  0  0
  -25.7647   -0.3897   29.0360 C   0  0  0  0  0  0  0  0  0  0  0  0
  -25.5296   -1.5302   29.9014 C   0  0  0  0  0  0  0  0  0  0  0  0
  -26.6888   -2.2893   30.1810 C   0  0  0  0  0  0  0  0  0  0  0  0
  -27.8727   -1.9508   29.7373 C   0  0  0  0  0  0  0  0  0  0  0  0
  -28.9304   -2.7298   30.1154 O   0  0  0  0  0  0  0  0  0  0  0  0
  -24.5394    0.4211   28.7421 C   0  0  0  0  0  0  0  0  0  0  0  0
  -24.5259    1.2743   27.7265 C   0  0  0  0  0  0  0  0  0  0  0  0
  -25.5567    1.6073   26.8963 C   0  0  0  0  0  0  0  0  0  0  0  0
  -23.1685    1.9096   27.4273 C   0  0  0  0  0  0  0  0  0  0  0  0
  -22.2990    1.7939   28.3515 F   0  0  0  0  0  0  0  0  0  0  0  0
  -22.9229    2.4542   26.3519 F   0  0  0  0  0  0  0  0  0  0  0  0
  -30.0599   -2.2419   30.5433 C   0  0  0  0  0  0  0  0  0  0  0  0
  -30.2927   -1.2790   30.9066 C   0  0  0  0  0  0  0  0  0  0  0  0
  -31.1435   -3.3214   30.4161 C   0  0  0  0  0  0  0  0  0  0  0  0
  -31.5762   -0.7605   31.3480 C   0  0  0  0  0  0  0  0  0  0  0  0
  -32.4417   -2.9185   30.7493 C   0  0  0  0  0  0  0  0  0  0  0  0
  -32.6409   -1.6458   31.2751 C   0  0  0  0  0  0  0  0  0  0  0  0
  -30.9447   -4.5382   29.9395 O   0  0  0  0  0  0  0  0  0  0  0  0
  -31.8143   -5.4789   29.8923 C   0  0  0  0  0  0  0  0  0  0  0  0
  -31.5876   -6.5586   30.6914 C   0  0  0  0  0  0  0  0  0  0  0  0
  -30.5028   -6.4393   31.5385 C   0  0  0  0  0  0  0  0  0  0  0  0
  -30.1846   -7.5218   32.5001 C   0  0  0  0  0  0  0  0  0  0  0  0
  -30.7919   -8.7341   32.2743 C   0  0  0  0  0  0  0  0  0  0  0  0
  -31.7653   -8.9013   31.3297 C   0  0  0  0  0  0  0  0  0  0  0  0
  -32.1204   -7.8224   30.5559 C   0  0  0  0  0  0  0  0  0  0  0  0
  -32.1398   -5.8184   28.4552 C   0  0  0  0  0  0  0  0  0  0  0  0
  -33.2291   -5.3622   27.9058 C   0  0  0  0  0  0  0  0  0  0  0  0
  -34.0080   -4.5284   28.6573 C   0  0  0  0  0  0  0  0  0  0  0  0
  -35.1306   -4.7015   28.7239 C   0  0  0  0  0  0  0  0  0  0  0  0
  -35.8647   -5.3264   27.6579 C   0  0  0  0  0  0  0  0  0  0  0  0
  -34.2332   -6.3101   27.4159 C   0  0  0  0  0  0  0  0  0  0  0  0
  -36.1112   -3.4701   29.1622 C   0  0  0  0  0  0  0  0  0  0  0  0
  -33.9120   -7.3829   28.0024 C   0  0  0  0  0  0  0  0  0  0  0  0
  6  7  1  0
  3  8  1  0
  8  9  2  3
  9 10  1  0
  9 11  1  0
 11 12  1  0
 11 13  1  0
  7 14  1  0
 16 20  1  0
 20 21  1  0
 21 22  1  0
 21 28  1  0
 28 29  2  3
 29 30  1  0
 30 31  2  0
 31 32  1  0
 29 33  1  0
 32 33  1  0
 31 34  1  0
 33 35  1  0
  1  2  2  0
  2  3  1  0
  3  4  2  0
  4  5  1  0
  5  6  2  0
  6  1  1  0
 22 23  2  0
 23 24  1  0
 24 25  2  0
 25 26  1  0
 26 27  2  0
 27 22  1  0
 14 15  2  0
 15 17  1  0
 17 19  2  0
 19 18  1  0
 18 16  2  0
 16 14  1  0
M  END

$$$$
