No_731-gen_results/8p0m/2024-11-27-11-27-31/
     RDKit          3D

 21 22  0  0  0  0  0  0  0  0999 V2000
  -28.0162   -0.8135   28.8779 C   0  0  0  0  0  0  0  0  0  0  0  0
  -28.4690   -0.7850   29.8287 C   0  0  0  0  0  0  0  0  0  0  0  0
  -27.0871    0.2903   28.6377 C   0  0  0  0  0  0  0  0  0  0  0  0
  -26.8317    1.2487   29.5869 C   0  0  0  0  0  0  0  0  0  0  0  0
  -28.3914    0.0801   31.0065 C   0  0  0  0  0  0  0  0  0  0  0  0
  -27.4940    1.1521   30.7841 C   0  0  0  0  0  0  0  0  0  0  0  0
  -26.3172    0.3994   27.3653 C   0  0  0  0  0  0  0  0  0  0  0  0
  -26.8815    0.9711   26.3721 C   0  0  0  0  0  0  0  0  0  0  0  0
  -28.2026    1.4637   26.4214 C   0  0  0  0  0  0  0  0  0  0  0  0
  -28.7510    1.9527   25.1515 C   0  0  0  0  0  0  0  0  0  0  0  0
  -27.9992    1.7656   23.9940 C   0  0  0  0  0  0  0  0  0  0  0  0
  -26.8200    1.1311   23.9824 C   0  0  0  0  0  0  0  0  0  0  0  0
  -26.1901    0.7119   25.1051 C   0  0  0  0  0  0  0  0  0  0  0  0
  -24.9839   -0.1692   27.4539 C   0  0  0  0  0  0  0  0  0  0  0  0
  -24.1065    0.3376   28.5506 C   0  0  0  0  0  0  0  0  0  0  0  0
  -23.1102   -0.4787   29.0198 C   0  0  0  0  0  0  0  0  0  0  0  0
  -23.4014   -1.6487   29.5231 C   0  0  0  0  0  0  0  0  0  0  0  0
  -21.7093   -0.1034   28.8849 C   0  0  0  0  0  0  0  0  0  0  0  0
  -23.9578    1.7450   28.7697 C   0  0  0  0  0  0  0  0  0  0  0  0
  -24.2477    2.3817   29.5880 O   0  0  0  0  0  0  0  0  0  0  0  0
  -23.4647    2.4771   27.6168 N   0  0  0  0  0  0  0  0  0  0  0  0
  3  7  1  0
  7 14  1  0
 14 15  1  0
 15 16  1  0
 16 17  1  0
 16 18  1  0
 15 19  1  0
 19 20  2  0
 19 21  1  0
  7  8  1  0
  8  9  2  0
  9 10  1  0
 10 11  2  0
 11 12  1  0
 12 13  2  0
 13  8  1  0
  1  2  2  0
  2  5  1  0
  5  6  2  0
  6  4  1  0
  4  3  2  0
  3  1  1  0
M  END

$$$$
