No_770-gen_results/8p0m/2024-11-27-11-27-31/
     RDKit          3D

 14 15  0  0  0  0  0  0  0  0999 V2000
  -28.0162   -0.8135   28.8779 C   0  0  0  0  0  0  0  0  0  0  0  0
  -27.0636   -0.1189   28.6079 C   0  0  0  0  0  0  0  0  0  0  0  0
  -27.0010    0.6913   27.4910 C   0  0  0  0  0  0  0  0  0  0  0  0
  -28.1373    0.7363   26.6350 C   0  0  0  0  0  0  0  0  0  0  0  0
  -29.2360    0.0765   27.0690 C   0  0  0  0  0  0  0  0  0  0  0  0
  -29.2177   -0.6429   28.1747 C   0  0  0  0  0  0  0  0  0  0  0  0
  -28.0030   -1.6604   30.1266 C   0  0  0  0  0  0  0  0  0  0  0  0
  -27.1218   -2.5017   30.2445 O   0  0  0  0  0  0  0  0  0  0  0  0
  -29.2001   -1.8741   30.8089 N   0  0  0  0  0  0  0  0  0  0  0  0
  -30.2866   -1.0126   30.8019 C   0  0  0  0  0  0  0  0  0  0  0  0
  -31.3920   -1.5938   31.3900 C   0  0  0  0  0  0  0  0  0  0  0  0
  -29.5321   -3.1817   31.2635 C   0  0  0  0  0  0  0  0  0  0  0  0
  -30.6722   -3.5342   31.7983 C   0  0  0  0  0  0  0  0  0  0  0  0
  -31.6036   -2.7126   31.9605 C   0  0  0  0  0  0  0  0  0  0  0  0
  1  7  1  0
  7  8  2  0
  7  9  1  0
  9 10  1  0
  9 12  1  0
 11 14  1  0
 13 14  1  0
 10 11  1  0
 13 12  1  0
  1  2  2  0
  2  3  1  0
  3  4  2  0
  4  5  1  0
  5  6  2  0
  6  1  1  0
M  END

$$$$
