No_763-gen_results/8p0m/2024-11-27-11-27-31/
     RDKit          3D

 35 37  0  0  0  0  0  0  0  0999 V2000
  -28.0162   -0.8135   28.8779 C   0  0  0  0  0  0  0  0  0  0  0  0
  -28.4690   -0.7850   29.8287 C   0  0  0  0  0  0  0  0  0  0  0  0
  -27.0871    0.2903   28.6377 C   0  0  0  0  0  0  0  0  0  0  0  0
  -26.8317    1.2487   29.5869 C   0  0  0  0  0  0  0  0  0  0  0  0
  -28.3914    0.0801   31.0065 C   0  0  0  0  0  0  0  0  0  0  0  0
  -27.4940    1.1521   30.7841 C   0  0  0  0  0  0  0  0  0  0  0  0
  -26.3109    0.3918   27.3640 C   0  0  0  0  0  0  0  0  0  0  0  0
  -25.7791    1.5134   27.3754 F   0  0  0  0  0  0  0  0  0  0  0  0
  -25.3764   -0.5538   27.3026 F   0  0  0  0  0  0  0  0  0  0  0  0
  -27.1173    0.2765   26.2866 F   0  0  0  0  0  0  0  0  0  0  0  0
  -29.5771   -2.1981   30.2641 Cl  0  0  0  0  0  0  0  0  0  0  0  0
  -27.2975    2.1936   31.8577 C   0  0  0  0  0  0  0  0  0  0  0  0
  -26.4657    2.7068   32.0755 O   0  0  0  0  0  0  0  0  0  0  0  0
  -28.2516    2.1731   32.8053 O   0  0  0  0  0  0  0  0  0  0  0  0
  -28.2434    3.0349   33.7668 C   0  0  0  0  0  0  0  0  0  0  0  0
  -29.2536    4.0230   33.6556 C   0  0  0  0  0  0  0  0  0  0  0  0
  -29.2549    4.9620   34.4145 C   0  0  0  0  0  0  0  0  0  0  0  0
  -30.2223    6.1239   34.2780 C   0  0  0  0  0  0  0  0  0  0  0  0
  -31.1599    5.9595   33.2438 C   0  0  0  0  0  0  0  0  0  0  0  0
  -31.0964    4.8401   32.4308 C   0  0  0  0  0  0  0  0  0  0  0  0
  -30.1183    3.8734   32.5965 C   0  0  0  0  0  0  0  0  0  0  0  0
  -32.1950    6.9717   33.0264 C   0  0  0  0  0  0  0  0  0  0  0  0
  -33.0439    6.9712   32.4152 N   0  0  0  0  0  0  0  0  0  0  0  0
  -31.8612    8.5074   33.9741 P   0  0  0  0  0  0  0  0  0  0  0  0
  -30.8906    8.5575   34.8235 O   0  0  0  0  0  0  0  0  0  0  0  0
  -31.6533    9.5582   32.8272 O   0  0  0  0  0  0  0  0  0  0  0  0
  -33.2575    8.7861   34.5375 O   0  0  0  0  0  0  0  0  0  0  0  0
  -34.3781    8.3058   34.4504 C   0  0  0  0  0  0  0  0  0  0  0  0
  -35.4525    9.1463   34.5461 C   0  0  0  0  0  0  0  0  0  0  0  0
  -35.3121   10.3020   35.1676 C   0  0  0  0  0  0  0  0  0  0  0  0
  -36.4347   11.2956   35.2951 C   0  0  0  0  0  0  0  0  0  0  0  0
  -36.2298   12.5059   35.9805 C   0  0  0  0  0  0  0  0  0  0  0  0
  -34.9559   12.8153   36.4977 C   0  0  0  0  0  0  0  0  0  0  0  0
  -33.9185   11.9007   36.3561 C   0  0  0  0  0  0  0  0  0  0  0  0
  -34.1257   10.7176   35.7108 C   0  0  0  0  0  0  0  0  0  0  0  0
  3  7  1  0
  7  8  1  0
  7  9  1  0
  7 10  1  0
  2 11  1  0
  6 12  1  0
 12 13  2  0
 12 14  1  0
 14 15  1  0
 15 16  1  0
 19 22  1  0
 22 23  2  0
 22 24  1  0
 24 25  1  0
 24 26  1  0
 24 27  1  0
 27 28  1  0
 28 29  2  3
 29 30  1  0
 30 31  2  0
 31 32  1  0
 32 33  2  0
 33 34  1  0
 34 35  2  0
 35 30  1  0
  1  2  2  0
  2  5  1  0
  5  6  2  0
  6  4  1  0
  4  3  2  0
  3  1  1  0
 16 17  2  0
 17 18  1  0
 18 19  2  0
 19 20  1  0
 20 21  2  0
 21 16  1  0
M  END

$$$$
