No_719-gen_results/8p0m/2024-11-27-11-27-31/
     RDKit          3D

 17 18  0  0  0  0  0  0  0  0999 V2000
  -28.0162   -0.8135   28.8779 C   0  0  0  0  0  0  0  0  0  0  0  0
  -27.0636   -0.1189   28.6079 C   0  0  0  0  0  0  0  0  0  0  0  0
  -26.9716    0.7139   27.5060 C   0  0  0  0  0  0  0  0  0  0  0  0
  -28.1053    0.7744   26.6421 C   0  0  0  0  0  0  0  0  0  0  0  0
  -29.2041    0.1179   27.0477 C   0  0  0  0  0  0  0  0  0  0  0  0
  -29.2127   -0.6088   28.1281 C   0  0  0  0  0  0  0  0  0  0  0  0
  -30.2643    0.2460   25.9920 C   0  0  0  0  0  0  0  0  0  0  0  0
  -30.1855    0.4120   24.8591 O   0  0  0  0  0  0  0  0  0  0  0  0
  -31.5699   -0.1167   26.4914 N   0  0  0  0  0  0  0  0  0  0  0  0
  -32.6574   -0.1846   25.5696 C   0  0  0  0  0  0  0  0  0  0  0  0
  -25.6713    1.4064   27.1348 C   0  0  0  0  0  0  0  0  0  0  0  0
  -25.3690    2.1909   26.3627 C   0  0  0  0  0  0  0  0  0  0  0  0
  -24.4527    2.9921   26.3249 C   0  0  0  0  0  0  0  0  0  0  0  0
  -23.1938    2.7114   27.0525 C   0  0  0  0  0  0  0  0  0  0  0  0
  -24.5275    1.1092   28.1290 C   0  0  0  0  0  0  0  0  0  0  0  0
  -23.3456    1.7404   28.0026 C   0  0  0  0  0  0  0  0  0  0  0  0
  -22.2619    1.4304   28.7591 O   0  0  0  0  0  0  0  0  0  0  0  0
  5  7  1  0
  7  8  2  0
  7  9  1  0
  9 10  1  0
  3 11  1  0
 16 17  1  0
  1  2  2  0
  2  3  1  0
  3  4  2  0
  4  5  1  0
  5  6  2  0
  6  1  1  0
 11 12  2  0
 12 13  1  0
 13 14  2  0
 14 16  1  0
 16 15  2  0
 15 11  1  0
M  END

$$$$
