No_748-gen_results/8p0m/2024-11-27-11-27-31/
     RDKit          3D

 18 19  0  0  0  0  0  0  0  0999 V2000
  -28.0162   -0.8135   28.8779 C   0  0  0  0  0  0  0  0  0  0  0  0
  -27.0636   -0.1189   28.6079 C   0  0  0  0  0  0  0  0  0  0  0  0
  -27.0010    0.6913   27.4910 C   0  0  0  0  0  0  0  0  0  0  0  0
  -25.8548    1.4825   27.0830 C   0  0  0  0  0  0  0  0  0  0  0  0
  -24.6901    1.4526   27.8807 C   0  0  0  0  0  0  0  0  0  0  0  0
  -24.7379    0.6010   29.0416 C   0  0  0  0  0  0  0  0  0  0  0  0
  -25.8234   -0.1688   29.3887 C   0  0  0  0  0  0  0  0  0  0  0  0
  -29.2075   -0.1514   29.0660 N   0  0  0  0  0  0  0  0  0  0  0  0
  -29.6327    0.2314   30.2532 C   0  0  0  0  0  0  0  0  0  0  0  0
  -30.8588    0.9466   30.2717 C   0  0  0  0  0  0  0  0  0  0  0  0
  -30.0154   -0.0554   27.9326 C   0  0  0  0  0  0  0  0  0  0  0  0
  -29.6720   -0.4571   26.8644 O   0  0  0  0  0  0  0  0  0  0  0  0
  -31.2013    0.6008   27.8548 N   0  0  0  0  0  0  0  0  0  0  0  0
  -31.3021    1.4039   31.4690 F   0  0  0  0  0  0  0  0  0  0  0  0
  -31.5656    1.1070   29.1527 C   0  0  0  0  0  0  0  0  0  0  0  0
  -23.5049    2.1707   27.5419 C   0  0  0  0  0  0  0  0  0  0  0  0
  -23.3893    2.6613   26.2926 N   0  0  0  0  0  0  0  0  0  0  0  0
  -22.4188    2.0528   28.1981 O   0  0  0  0  0  0  0  0  0  0  0  0
  1  2  1  0
  1  8  1  0
  8  9  1  0
  8 11  1  0
 11 12  2  0
 11 13  1  0
 10 14  1  0
 10 15  1  0
  5 16  1  0
 16 17  1  0
 16 18  2  0
  9 10  1  0
 15 13  1  0
  2  3  2  0
  3  4  1  0
  4  5  2  0
  5  6  1  0
  6  7  2  0
  7  2  1  0
M  END

$$$$
