No_768-gen_results/8p0m/2024-11-27-11-27-31/
     RDKit          3D

 15 16  0  0  0  0  0  0  0  0999 V2000
  -28.0162   -0.8135   28.8779 C   0  0  0  0  0  0  0  0  0  0  0  0
  -28.4690   -0.7850   29.8287 C   0  0  0  0  0  0  0  0  0  0  0  0
  -27.1356    0.2359   28.5352 C   0  0  0  0  0  0  0  0  0  0  0  0
  -26.8745    1.2825   29.3982 C   0  0  0  0  0  0  0  0  0  0  0  0
  -28.3613    0.1987   30.9244 C   0  0  0  0  0  0  0  0  0  0  0  0
  -27.5277    1.2234   30.6356 C   0  0  0  0  0  0  0  0  0  0  0  0
  -26.4949    0.0903   27.3378 O   0  0  0  0  0  0  0  0  0  0  0  0
  -25.7060    1.2064   26.8823 C   0  0  0  0  0  0  0  0  0  0  0  0
  -24.4098    0.7387   26.4082 C   0  0  0  0  0  0  0  0  0  0  0  0
  -23.5583    0.3726   27.3848 C   0  0  0  0  0  0  0  0  0  0  0  0
  -22.4067    1.2002   27.8291 C   0  0  0  0  0  0  0  0  0  0  0  0
  -21.5333    0.8163   28.7821 C   0  0  0  0  0  0  0  0  0  0  0  0
  -21.6981   -0.4319   29.4590 C   0  0  0  0  0  0  0  0  0  0  0  0
  -23.6377   -0.8574   28.1908 C   0  0  0  0  0  0  0  0  0  0  0  0
  -22.7537   -1.2233   29.1518 C   0  0  0  0  0  0  0  0  0  0  0  0
  3  7  1  0
  7  8  1  0
  8  9  1  0
  9 10  1  0
 10 11  2  0
 11 12  1  0
 12 13  2  0
 13 15  1  0
 15 14  2  0
 14 10  1  0
  1  2  2  0
  2  5  1  0
  5  6  2  0
  6  4  1  0
  4  3  2  0
  3  1  1  0
M  END

$$$$
