No_718-gen_results/8p0m/2024-11-27-11-27-31/
     RDKit          3D

 11 12  0  0  0  0  0  0  0  0999 V2000
  -28.0162   -0.8135   28.8779 C   0  0  0  0  0  0  0  0  0  0  0  0
  -27.0636   -0.1189   28.6079 C   0  0  0  0  0  0  0  0  0  0  0  0
  -26.9849    0.5972   27.5218 N   0  0  0  0  0  0  0  0  0  0  0  0
  -27.9930   -1.5759   30.1509 C   0  0  0  0  0  0  0  0  0  0  0  0
  -26.8106   -1.6889   30.8356 C   0  0  0  0  0  0  0  0  0  0  0  0
  -25.6677   -1.0633   30.4296 C   0  0  0  0  0  0  0  0  0  0  0  0
  -25.7501   -0.2429   29.2785 C   0  0  0  0  0  0  0  0  0  0  0  0
  -25.9006    0.8910   26.8045 C   0  0  0  0  0  0  0  0  0  0  0  0
  -25.8478    1.5338   25.6487 C   0  0  0  0  0  0  0  0  0  0  0  0
  -24.6671    1.0419   27.5683 C   0  0  0  0  0  0  0  0  0  0  0  0
  -24.5587    0.3447   28.7440 C   0  0  0  0  0  0  0  0  0  0  0  0
  9  8  1  0
  1  2  2  0
  7  6  2  0
  6  5  1  0
  5  4  2  0
  4  1  1  0
  2  3  1  0
  3  8  2  0
  8 10  1  0
 10 11  2  0
 11  7  1  0
  7  2  1  0
M  END

$$$$
