No_760-gen_results/8p0m/2024-11-27-11-27-31/
     RDKit          3D

 16 17  0  0  0  0  0  0  0  0999 V2000
  -28.0162   -0.8135   28.8779 C   0  0  0  0  0  0  0  0  0  0  0  0
  -28.4690   -0.7850   29.8287 C   0  0  0  0  0  0  0  0  0  0  0  0
  -27.1356    0.2359   28.5352 C   0  0  0  0  0  0  0  0  0  0  0  0
  -26.8745    1.2825   29.3982 C   0  0  0  0  0  0  0  0  0  0  0  0
  -27.5070    1.2380   30.6295 C   0  0  0  0  0  0  0  0  0  0  0  0
  -28.3293    0.1745   30.9350 C   0  0  0  0  0  0  0  0  0  0  0  0
  -26.4077    0.3070   27.2259 C   0  0  0  0  0  0  0  0  0  0  0  0
  -26.8825    0.5866   26.2352 N   0  0  0  0  0  0  0  0  0  0  0  0
  -25.0978   -0.0459   27.2404 O   0  0  0  0  0  0  0  0  0  0  0  0
  -26.2326    0.5076   24.8927 C   0  0  0  0  0  0  0  0  0  0  0  0
  -28.3093    0.9958   26.0176 C   0  0  0  0  0  0  0  0  0  0  0  0
  -28.3958    2.2681   25.7669 C   0  0  0  0  0  0  0  0  0  0  0  0
  -29.3166    0.1153   25.9485 C   0  0  0  0  0  0  0  0  0  0  0  0
  -30.5998    0.5389   25.7752 C   0  0  0  0  0  0  0  0  0  0  0  0
  -29.7460    2.8375   25.5258 C   0  0  0  0  0  0  0  0  0  0  0  0
  -30.8155    1.9605   25.5340 C   0  0  0  0  0  0  0  0  0  0  0  0
  3  7  1  0
  7  8  1  0
  7  9  2  0
  8 10  1  0
  8 11  1  0
 11 12  2  0
 12 15  1  0
 15 16  2  0
 16 14  1  0
 14 13  2  0
 13 11  1  0
  1  2  2  0
  2  6  1  0
  6  5  2  0
  5  4  1  0
  4  3  2  0
  3  1  1  0
M  END

$$$$
