No_715-gen_results/8p0m/2024-11-27-11-27-31/
     RDKit          3D

 12 11  0  0  0  0  0  0  0  0999 V2000
  -28.1493   -0.8198   28.9079 Cl  0  0  0  0  0  0  0  0  0  0  0  0
  -28.5324   -0.0471   29.7727 C   0  0  0  0  0  0  0  0  0  0  0  0
  -27.6515    0.7172   30.3086 F   0  0  0  0  0  0  0  0  0  0  0  0
  -29.6788    0.8470   29.3357 C   0  0  0  0  0  0  0  0  0  0  0  0
  -29.0606   -0.6842   30.9412 F   0  0  0  0  0  0  0  0  0  0  0  0
  -29.9525    1.7977   29.8829 N   0  0  0  0  0  0  0  0  0  0  0  0
  -29.7612    3.0286   29.4259 C   0  0  0  0  0  0  0  0  0  0  0  0
  -29.3351    3.2952   28.1966 C   0  0  0  0  0  0  0  0  0  0  0  0
  -28.6709    4.4270   27.7967 C   0  0  0  0  0  0  0  0  0  0  0  0
  -27.7741    4.3490   26.7546 C   0  0  0  0  0  0  0  0  0  0  0  0
  -27.6639    3.2060   25.9287 C   0  0  0  0  0  0  0  0  0  0  0  0
  -28.3201    2.1134   26.2927 C   0  0  0  0  0  0  0  0  0  0  0  0
  1  2  1  0
  2  3  1  0
  2  4  1  0
  2  5  1  0
  4  6  1  0
  6  7  1  0
  7  8  2  3
  8  9  1  0
  9 10  2  3
 10 11  1  0
 11 12  2  0
M  END

$$$$
