No_701-gen_results/8p0m/2024-11-27-11-27-31/
     RDKit          3D

 14 14  0  0  0  0  0  0  0  0999 V2000
  -28.0162   -0.8135   28.8779 C   0  0  0  0  0  0  0  0  0  0  0  0
  -28.4690   -0.7850   29.8287 C   0  0  0  0  0  0  0  0  0  0  0  0
  -26.5042   -0.7777   28.8766 C   0  0  0  0  0  0  0  0  0  0  0  0
  -25.8103   -0.8531   30.1028 C   0  0  0  0  0  0  0  0  0  0  0  0
  -27.9906   -0.8916   31.2257 C   0  0  0  0  0  0  0  0  0  0  0  0
  -26.6042   -0.8676   31.2652 C   0  0  0  0  0  0  0  0  0  0  0  0
  -30.0773   -0.8857   30.0240 C   0  0  0  0  0  0  0  0  0  0  0  0
  -30.6406   -1.8993   30.1420 O   0  0  0  0  0  0  0  0  0  0  0  0
  -30.7306    0.2547   29.8034 O   0  0  0  0  0  0  0  0  0  0  0  0
  -25.6668   -0.7064   27.6792 C   0  0  0  0  0  0  0  0  0  0  0  0
  -25.9298    0.3750   26.7782 C   0  0  0  0  0  0  0  0  0  0  0  0
  -25.5740    1.3363   26.6437 C   0  0  0  0  0  0  0  0  0  0  0  0
  -24.6418    1.9337   27.7089 C   0  0  0  0  0  0  0  0  0  0  0  0
  -23.7551    2.3776   27.8485 N   0  0  0  0  0  0  0  0  0  0  0  0
  2  7  1  0
  7  8  2  0
  7  9  1  0
  3 10  1  0
 10 11  1  0
 11 12  2  3
 12 13  1  0
 13 14  3  0
  1  2  2  0
  2  5  1  0
  5  6  2  0
  6  4  1  0
  4  3  2  0
  3  1  1  0
M  END

$$$$
