No_736-gen_results/8p0m/2024-11-27-11-27-31/
     RDKit          3D

 30 33  0  0  0  0  0  0  0  0999 V2000
  -28.0162   -0.8135   28.8779 C   0  0  0  0  0  0  0  0  0  0  0  0
  -27.0636   -0.1189   28.6079 C   0  0  0  0  0  0  0  0  0  0  0  0
  -27.0010    0.6913   27.4910 C   0  0  0  0  0  0  0  0  0  0  0  0
  -25.8548    1.4825   27.0830 C   0  0  0  0  0  0  0  0  0  0  0  0
  -25.8227    2.3296   25.9941 C   0  0  0  0  0  0  0  0  0  0  0  0
  -29.2749   -0.4841   28.3563 C   0  0  0  0  0  0  0  0  0  0  0  0
  -29.3535    0.3686   27.3239 C   0  0  0  0  0  0  0  0  0  0  0  0
  -28.2055    1.0839   26.8491 C   0  0  0  0  0  0  0  0  0  0  0  0
  -27.0690    2.6247   25.3710 C   0  0  0  0  0  0  0  0  0  0  0  0
  -28.2250    2.0083   25.7937 C   0  0  0  0  0  0  0  0  0  0  0  0
  -27.9622   -1.7069   29.9338 F   0  0  0  0  0  0  0  0  0  0  0  0
  -24.4998    1.1747   27.6806 C   0  0  0  0  0  0  0  0  0  0  0  0
  -24.1319    2.0016   28.8021 C   0  0  0  0  0  0  0  0  0  0  0  0
  -23.5247    1.3448   29.8586 C   0  0  0  0  0  0  0  0  0  0  0  0
  -23.8053    0.0433   29.9723 C   0  0  0  0  0  0  0  0  0  0  0  0
  -23.3263   -0.7895   28.9497 C   0  0  0  0  0  0  0  0  0  0  0  0
  -23.8732   -0.1450   27.6590 C   0  0  0  0  0  0  0  0  0  0  0  0
  -22.9231   -0.4399   31.3433 C   0  0  0  0  0  0  0  0  0  0  0  0
  -25.1314   -0.3683   30.6103 C   0  0  0  0  0  0  0  0  0  0  0  0
  -25.5423    0.1223   31.8505 C   0  0  0  0  0  0  0  0  0  0  0  0
  -25.5099   -1.7761   30.3826 C   0  0  0  0  0  0  0  0  0  0  0  0
  -25.8719   -0.4289   32.8632 C   0  0  0  0  0  0  0  0  0  0  0  0
  -25.8900    0.2294   34.1426 C   0  0  0  0  0  0  0  0  0  0  0  0
  -26.3019   -0.4188   35.3335 C   0  0  0  0  0  0  0  0  0  0  0  0
  -27.6539   -0.9566   35.3453 C   0  0  0  0  0  0  0  0  0  0  0  0
  -28.1020   -1.4100   34.0500 C   0  0  0  0  0  0  0  0  0  0  0  0
  -27.3635   -1.0608   32.8629 C   0  0  0  0  0  0  0  0  0  0  0  0
  -25.2387   -2.6309   28.9437 Cl  0  0  0  0  0  0  0  0  0  0  0  0
  -24.3558    3.3035   28.6559 O   0  0  0  0  0  0  0  0  0  0  0  0
  -30.5031    0.5540   26.7535 F   0  0  0  0  0  0  0  0  0  0  0  0
  1 11  1  0
  4 12  1  0
 12 13  1  0
 13 14  1  0
 14 15  1  0
 15 16  1  0
 12 17  1  0
 15 18  1  0
 15 19  1  0
 19 20  1  0
 19 21  1  0
 20 22  1  0
 21 28  1  0
 13 29  2  0
  7 30  1  0
 17 16  1  0
 22 23  2  0
 23 24  1  0
 24 25  2  0
 25 26  1  0
 26 27  2  0
 27 22  1  0
  1  2  2  0
  2  3  1  0
  8  7  1  0
  7  6  2  0
  6  1  1  0
  3  4  2  0
  4  5  1  0
  5  9  2  0
  9 10  1  0
 10  8  2  0
  8  3  1  0
M  END

$$$$
