No_772-gen_results/8p0m/2024-11-27-11-27-31/
     RDKit          3D

 29 31  0  0  0  0  0  0  0  0999 V2000
  -28.0162   -0.8135   28.8779 C   0  0  0  0  0  0  0  0  0  0  0  0
  -27.0636   -0.1190   28.6079 C   0  0  0  0  0  0  0  0  0  0  0  0
  -26.8756    1.1325   28.9134 C   0  0  0  0  0  0  0  0  0  0  0  0
  -25.6883    1.9515   28.5672 C   0  0  0  0  0  0  0  0  0  0  0  0
  -24.6394    1.2834   27.8753 C   0  0  0  0  0  0  0  0  0  0  0  0
  -23.4556    1.9996   27.5653 C   0  0  0  0  0  0  0  0  0  0  0  0
  -25.8432   -0.7373   27.9210 C   0  0  0  0  0  0  0  0  0  0  0  0
  -24.6903   -0.0521   27.5832 C   0  0  0  0  0  0  0  0  0  0  0  0
  -22.3908    1.7594   27.5914 O   0  0  0  0  0  0  0  0  0  0  0  0
  -23.7505    3.0499   26.5952 O   0  0  0  0  0  0  0  0  0  0  0  0
  -27.9600   -1.2445   30.3590 C   0  0  0  0  0  0  0  0  0  0  0  0
  -26.7528   -1.2265   31.1528 Cl  0  0  0  0  0  0  0  0  0  0  0  0
  -29.2584   -1.8552   30.8971 C   0  0  0  0  0  0  0  0  0  0  0  0
  -29.6659   -1.3254   31.9406 O   0  0  0  0  0  0  0  0  0  0  0  0
  -29.7501   -2.8134   30.3298 O   0  0  0  0  0  0  0  0  0  0  0  0
  -25.5741    3.3626   28.9344 C   0  0  0  0  0  0  0  0  0  0  0  0
  -26.3161    4.1951   28.2238 N   0  0  0  0  0  0  0  0  0  0  0  0
  -27.2191    4.2108   27.6017 C   0  0  0  0  0  0  0  0  0  0  0  0
  -25.6777    5.6480   28.2880 C   0  0  0  0  0  0  0  0  0  0  0  0
  -26.3675    6.6127   28.9234 C   0  0  0  0  0  0  0  0  0  0  0  0
  -25.8238    7.4204   29.7635 C   0  0  0  0  0  0  0  0  0  0  0  0
  -26.5034    8.1928   30.7134 C   0  0  0  0  0  0  0  0  0  0  0  0
  -27.8857    8.2255   30.5662 C   0  0  0  0  0  0  0  0  0  0  0  0
  -28.5028    7.3844   29.6899 C   0  0  0  0  0  0  0  0  0  0  0  0
  -27.7584    6.5239   28.8854 C   0  0  0  0  0  0  0  0  0  0  0  0
  -28.2846    5.2228   28.1857 C   0  0  0  0  0  0  0  0  0  0  0  0
  -29.6777    5.0902   27.9517 C   0  0  0  0  0  0  0  0  0  0  0  0
  -30.5321    5.2110   28.6820 O   0  0  0  0  0  0  0  0  0  0  0  0
  -29.9875    4.8586   26.6658 O   0  0  0  0  0  0  0  0  0  0  0  0
  5  6  1  0
  6  9  2  0
  6 10  1  0
  1 11  1  0
 11 12  1  0
 11 13  1  0
 13 14  2  0
 13 15  1  0
  4 16  1  0
 16 17  1  0
 17 18  1  0
 17 19  1  0
 19 20  1  0
 25 26  1  0
 26 27  1  0
 27 28  2  0
 27 29  1  0
  1  2  1  0
 18 26  1  0
  2  3  2  0
  3  4  1  0
  4  5  2  0
  5  8  1  0
  8  7  2  0
  7  2  1  0
 20 21  2  0
 21 22  1  0
 22 23  2  0
 23 24  1  0
 24 25  2  0
 25 20  1  0
M  END

$$$$
