No_74-gen_results/8p0m/2024-11-27-11-27-31/
     RDKit          3D

 25 27  0  0  0  0  0  0  0  0999 V2000
  -28.0162   -0.8135   28.8779 C   0  0  0  0  0  0  0  0  0  0  0  0
  -27.0636   -0.1190   28.6079 C   0  0  0  0  0  0  0  0  0  0  0  0
  -25.7923   -0.4302   29.0761 C   0  0  0  0  0  0  0  0  0  0  0  0
  -25.5756   -1.5654   29.9363 C   0  0  0  0  0  0  0  0  0  0  0  0
  -26.7354   -2.3004   30.2173 C   0  0  0  0  0  0  0  0  0  0  0  0
  -27.9184   -1.9537   29.7629 C   0  0  0  0  0  0  0  0  0  0  0  0
  -29.0732   -2.7835   30.1783 C   0  0  0  0  0  0  0  0  0  0  0  0
  -30.2371   -2.2946   30.1694 N   0  0  0  0  0  0  0  0  0  0  0  0
  -28.8717   -3.9832   30.5613 O   0  0  0  0  0  0  0  0  0  0  0  0
  -31.4151   -3.0905   30.5077 C   0  0  0  0  0  0  0  0  0  0  0  0
  -24.6164    0.3049   28.7344 N   0  0  0  0  0  0  0  0  0  0  0  0
  -24.4877    1.1911   27.7697 C   0  0  0  0  0  0  0  0  0  0  0  0
  -25.1312    1.5468   26.9085 C   0  0  0  0  0  0  0  0  0  0  0  0
  -24.7335    2.5094   25.9342 C   0  0  0  0  0  0  0  0  0  0  0  0
  -23.4398    3.0032   25.9776 C   0  0  0  0  0  0  0  0  0  0  0  0
  -23.0381    1.6260   27.8569 C   0  0  0  0  0  0  0  0  0  0  0  0
  -22.6192    2.6023   26.9293 C   0  0  0  0  0  0  0  0  0  0  0  0
  -23.3780    0.0992   29.5343 C   0  0  0  0  0  0  0  0  0  0  0  0
  -22.4025    1.0187   28.9967 C   0  0  0  0  0  0  0  0  0  0  0  0
  -32.4314   -2.8361   29.7423 C   0  0  0  0  0  0  0  0  0  0  0  0
  -33.4112   -2.5099   30.2319 F   0  0  0  0  0  0  0  0  0  0  0  0
  -32.0401   -1.8945   28.8182 F   0  0  0  0  0  0  0  0  0  0  0  0
  -32.6314   -3.9445   28.9319 F   0  0  0  0  0  0  0  0  0  0  0  0
  -31.7067   -2.6155   32.1639 Cl  0  0  0  0  0  0  0  0  0  0  0  0
  -31.0391   -4.4312   30.5871 O   0  0  0  0  0  0  0  0  0  0  0  0
  6  7  1  0
  7  8  1  0
  7  9  2  0
  8 10  1  0
  3 11  1  0
 11 12  1  0
 11 18  1  0
 16 19  1  0
 18 19  1  0
 10 20  1  0
 20 21  1  0
 20 22  1  0
 20 23  1  0
 10 24  1  0
 10 25  1  0
 12 13  2  0
 13 14  1  0
 14 15  2  0
 15 17  1  0
 17 16  2  0
 16 12  1  0
  1  2  2  0
  2  3  1  0
  3  4  2  0
  4  5  1  0
  5  6  2  0
  6  1  1  0
M  END

$$$$
