No_785-gen_results/8p0m/2024-11-27-11-27-31/
     RDKit          3D

 23 25  0  0  0  0  0  0  0  0999 V2000
  -28.0162   -0.8135   28.8779 C   0  0  0  0  0  0  0  0  0  0  0  0
  -27.0636   -0.1190   28.6079 C   0  0  0  0  0  0  0  0  0  0  0  0
  -25.7923   -0.4302   29.0761 C   0  0  0  0  0  0  0  0  0  0  0  0
  -24.5456    0.3494   28.8225 C   0  0  0  0  0  0  0  0  0  0  0  0
  -23.2409    0.0217   29.3323 C   0  0  0  0  0  0  0  0  0  0  0  0
  -27.8820   -1.8995   29.8633 C   0  0  0  0  0  0  0  0  0  0  0  0
  -26.6706   -2.3272   30.3212 C   0  0  0  0  0  0  0  0  0  0  0  0
  -25.5433   -1.5852   29.9316 C   0  0  0  0  0  0  0  0  0  0  0  0
  -22.1918    0.8302   29.0004 C   0  0  0  0  0  0  0  0  0  0  0  0
  -22.1472    1.7783   28.0287 C   0  0  0  0  0  0  0  0  0  0  0  0
  -24.5322    1.3987   27.8163 C   0  0  0  0  0  0  0  0  0  0  0  0
  -23.3620    2.0694   27.4607 C   0  0  0  0  0  0  0  0  0  0  0  0
  -29.0617   -2.7252   30.3001 C   0  0  0  0  0  0  0  0  0  0  0  0
  -29.2876   -2.7236   31.5324 N   0  0  0  0  0  0  0  0  0  0  0  0
  -29.7030   -3.8283   32.1708 C   0  0  0  0  0  0  0  0  0  0  0  0
  -30.1736   -1.6052   31.9296 C   0  0  0  0  0  0  0  0  0  0  0  0
  -30.2914   -0.5966   31.4387 C   0  0  0  0  0  0  0  0  0  0  0  0
  -31.1432    0.4895   31.9093 C   0  0  0  0  0  0  0  0  0  0  0  0
  -31.8453    0.2392   33.0194 C   0  0  0  0  0  0  0  0  0  0  0  0
  -31.6871   -0.9236   33.7207 C   0  0  0  0  0  0  0  0  0  0  0  0
  -30.7331   -1.8476   33.3541 C   0  0  0  0  0  0  0  0  0  0  0  0
  -30.6057   -3.1909   33.7846 C   0  0  0  0  0  0  0  0  0  0  0  0
  -29.5975   -4.9556   32.0810 O   0  0  0  0  0  0  0  0  0  0  0  0
  3  4  1  0
  6 13  1  0
 13 14  1  0
 14 15  1  0
 14 16  1  0
 21 22  1  0
 15 23  2  0
  1  2  2  0
  2  3  1  0
  3  8  2  0
  8  7  1  0
  7  6  2  0
  6  1  1  0
  4  5  2  0
  5  9  1  0
  9 10  2  0
 10 12  1  0
 12 11  2  0
 11  4  1  0
 16 17  2  0
 17 18  1  0
 18 19  2  0
 19 20  1  0
 20 21  2  0
 21 16  1  0
M  END

$$$$
