No_70-gen_results/8p0m/2024-11-27-11-27-31/
     RDKit          3D

 23 25  0  0  0  0  0  0  0  0999 V2000
  -28.0162   -0.8135   28.8779 C   0  0  0  0  0  0  0  0  0  0  0  0
  -27.0636   -0.1190   28.6079 C   0  0  0  0  0  0  0  0  0  0  0  0
  -25.7923   -0.4302   29.0761 C   0  0  0  0  0  0  0  0  0  0  0  0
  -24.5456    0.3494   28.8225 C   0  0  0  0  0  0  0  0  0  0  0  0
  -24.6586    1.4196   27.8878 C   0  0  0  0  0  0  0  0  0  0  0  0
  -23.5403    2.1791   27.5500 C   0  0  0  0  0  0  0  0  0  0  0  0
  -22.2925    1.7428   28.0473 C   0  0  0  0  0  0  0  0  0  0  0  0
  -22.1712    0.7079   28.9284 C   0  0  0  0  0  0  0  0  0  0  0  0
  -23.3345   -0.0624   29.3081 C   0  0  0  0  0  0  0  0  0  0  0  0
  -27.9466   -1.8823   29.8708 C   0  0  0  0  0  0  0  0  0  0  0  0
  -26.7159   -2.3287   30.3060 C   0  0  0  0  0  0  0  0  0  0  0  0
  -25.5921   -1.5643   29.9672 C   0  0  0  0  0  0  0  0  0  0  0  0
  -29.1222   -2.6863   30.2515 C   0  0  0  0  0  0  0  0  0  0  0  0
  -29.3875   -2.6645   31.4649 O   0  0  0  0  0  0  0  0  0  0  0  0
  -29.7126   -3.4433   29.4843 O   0  0  0  0  0  0  0  0  0  0  0  0
  -23.6401    3.1719   26.6964 O   0  0  0  0  0  0  0  0  0  0  0  0
  -25.0112    3.6429   26.4696 C   0  0  0  0  0  0  0  0  0  0  0  0
  -25.4896    4.7695   27.0979 C   0  0  0  0  0  0  0  0  0  0  0  0
  -26.2976    5.0785   27.6094 C   0  0  0  0  0  0  0  0  0  0  0  0
  -26.5721    6.4190   28.2626 C   0  0  0  0  0  0  0  0  0  0  0  0
  -24.5836    6.0879   26.8854 C   0  0  0  0  0  0  0  0  0  0  0  0
  -24.7183    7.2449   27.3050 C   0  0  0  0  0  0  0  0  0  0  0  0
  -25.7901    7.4731   28.0968 C   0  0  0  0  0  0  0  0  0  0  0  0
  3  4  1  0
 10 13  1  0
 13 14  2  0
 13 15  1  0
  6 16  1  0
 16 17  1  0
 17 18  1  0
 18 19  2  0
 19 20  1  0
 20 23  2  0
 23 22  1  0
 22 21  2  0
 21 18  1  0
  1  2  2  0
  2  3  1  0
  3 12  2  0
 12 11  1  0
 11 10  2  0
 10  1  1  0
  4  5  2  0
  5  6  1  0
  6  7  2  0
  7  8  1  0
  8  9  2  0
  9  4  1  0
M  END

$$$$
