No_788-gen_results/8p0m/2024-11-27-11-27-31/
     RDKit          3D

 17 18  0  0  0  0  0  0  0  0999 V2000
  -28.0727   -1.2542   28.5316 F   0  0  0  0  0  0  0  0  0  0  0  0
  -27.3591   -0.3792   28.7224 C   0  0  0  0  0  0  0  0  0  0  0  0
  -26.8100    0.1885   27.6513 C   0  0  0  0  0  0  0  0  0  0  0  0
  -25.6015    0.9529   27.6828 C   0  0  0  0  0  0  0  0  0  0  0  0
  -25.0371    1.2332   29.0000 C   0  0  0  0  0  0  0  0  0  0  0  0
  -25.6162    0.5855   30.0870 C   0  0  0  0  0  0  0  0  0  0  0  0
  -26.6061   -0.2296   29.9624 C   0  0  0  0  0  0  0  0  0  0  0  0
  -23.9013    2.1103   29.0826 C   0  0  0  0  0  0  0  0  0  0  0  0
  -23.4282    2.7207   28.1720 O   0  0  0  0  0  0  0  0  0  0  0  0
  -23.6175    2.3883   30.3589 O   0  0  0  0  0  0  0  0  0  0  0  0
  -27.2536    0.0037   26.3929 O   0  0  0  0  0  0  0  0  0  0  0  0
  -28.4207    0.6311   26.0544 C   0  0  0  0  0  0  0  0  0  0  0  0
  -28.4339    1.4410   25.3733 C   0  0  0  0  0  0  0  0  0  0  0  0
  -29.6805    2.1739   24.9167 C   0  0  0  0  0  0  0  0  0  0  0  0
  -30.8703    1.6706   25.3568 C   0  0  0  0  0  0  0  0  0  0  0  0
  -29.7235    0.0975   26.5262 C   0  0  0  0  0  0  0  0  0  0  0  0
  -30.8493    0.5898   26.1817 C   0  0  0  0  0  0  0  0  0  0  0  0
  1  2  1  0
  5  8  1  0
  8  9  2  0
  8 10  1  0
  3 11  1  0
 11 12  1  0
 12 13  2  0
 13 14  1  0
 14 15  2  0
 15 17  1  0
 17 16  2  0
 16 12  1  0
  2  3  2  0
  3  4  1  0
  4  5  2  0
  5  6  1  0
  6  7  2  0
  7  2  1  0
M  END

$$$$
