No_746-gen_results/8p0m/2024-11-27-11-27-31/
     RDKit          3D

 10 10  0  0  0  0  0  0  0  0999 V2000
  -28.1493   -0.8198   28.9079 Cl  0  0  0  0  0  0  0  0  0  0  0  0
  -26.9116   -0.0797   28.9452 C   0  0  0  0  0  0  0  0  0  0  0  0
  -26.0490   -0.0718   27.8591 C   0  0  0  0  0  0  0  0  0  0  0  0
  -25.2289    1.0128   27.6200 C   0  0  0  0  0  0  0  0  0  0  0  0
  -24.7459    1.8002   28.6916 C   0  0  0  0  0  0  0  0  0  0  0  0
  -25.4578    1.6617   29.8627 C   0  0  0  0  0  0  0  0  0  0  0  0
  -26.4794    0.7961   30.0040 C   0  0  0  0  0  0  0  0  0  0  0  0
  -24.4211    1.0245   26.5297 F   0  0  0  0  0  0  0  0  0  0  0  0
  -27.1807    0.7533   31.1432 F   0  0  0  0  0  0  0  0  0  0  0  0
  -23.4214    2.8621   28.4248 Cl  0  0  0  0  0  0  0  0  0  0  0  0
  1  2  1  0
  4  8  1  0
  7  9  1  0
  5 10  1  0
  2  3  2  0
  3  4  1  0
  4  5  2  0
  5  6  1  0
  6  7  2  0
  7  2  1  0
M  END

$$$$
