No_709-gen_results/8p0m/2024-11-27-11-27-31/
     RDKit          3D

 35 38  0  0  0  0  0  0  0  0999 V2000
  -28.0162   -0.8135   28.8779 C   0  0  0  0  0  0  0  0  0  0  0  0
  -27.0636   -0.1190   28.6079 C   0  0  0  0  0  0  0  0  0  0  0  0
  -25.7647   -0.3897   29.0360 C   0  0  0  0  0  0  0  0  0  0  0  0
  -25.5296   -1.5302   29.9014 C   0  0  0  0  0  0  0  0  0  0  0  0
  -26.6888   -2.2893   30.1810 C   0  0  0  0  0  0  0  0  0  0  0  0
  -27.8727   -1.9508   29.7373 C   0  0  0  0  0  0  0  0  0  0  0  0
  -24.5491    0.4100   28.7341 C   0  0  0  0  0  0  0  0  0  0  0  0
  -24.0931    1.3779   29.5761 C   0  0  0  0  0  0  0  0  0  0  0  0
  -22.9754    2.1437   29.2395 C   0  0  0  0  0  0  0  0  0  0  0  0
  -22.2571    1.9096   28.0218 C   0  0  0  0  0  0  0  0  0  0  0  0
  -23.7980    0.2733   27.5521 C   0  0  0  0  0  0  0  0  0  0  0  0
  -22.7107    1.0013   27.2291 C   0  0  0  0  0  0  0  0  0  0  0  0
  -29.2203   -2.9119   30.2123 Cl  0  0  0  0  0  0  0  0  0  0  0  0
  -24.8560    1.6478   31.0935 Cl  0  0  0  0  0  0  0  0  0  0  0  0
  -27.1791    0.9659   27.7467 O   0  0  0  0  0  0  0  0  0  0  0  0
  -27.7461    0.9592   26.6038 C   0  0  0  0  0  0  0  0  0  0  0  0
  -27.0100    1.2541   25.5707 C   0  0  0  0  0  0  0  0  0  0  0  0
  -29.1252    0.8086   26.5437 C   0  0  0  0  0  0  0  0  0  0  0  0
  -29.7655    0.7549   25.3340 C   0  0  0  0  0  0  0  0  0  0  0  0
  -27.6092    1.2208   24.2688 C   0  0  0  0  0  0  0  0  0  0  0  0
  -31.1690    0.5232   25.1667 C   0  0  0  0  0  0  0  0  0  0  0  0
  -28.9741    1.0081   24.2064 C   0  0  0  0  0  0  0  0  0  0  0  0
  -31.8716   -0.0818   25.8554 N   0  0  0  0  0  0  0  0  0  0  0  0
  -33.0703   -0.5318   25.8399 C   0  0  0  0  0  0  0  0  0  0  0  0
  -31.7308    0.9753   24.0892 O   0  0  0  0  0  0  0  0  0  0  0  0
  -33.5444   -1.2243   27.0156 C   0  0  0  0  0  0  0  0  0  0  0  0
  -32.6520   -1.2801   27.9498 C   0  0  0  0  0  0  0  0  0  0  0  0
  -31.4801   -0.5804   27.4775 C   0  0  0  0  0  0  0  0  0  0  0  0
  -32.6796   -1.8252   29.2643 C   0  0  0  0  0  0  0  0  0  0  0  0
  -32.1808   -1.2080   30.1991 O   0  0  0  0  0  0  0  0  0  0  0  0
  -33.1815   -2.9603   29.4221 O   0  0  0  0  0  0  0  0  0  0  0  0
  -24.3684   -1.8114   30.3386 F   0  0  0  0  0  0  0  0  0  0  0  0
  -33.0145   -3.7338   30.4595 C   0  0  0  0  0  0  0  0  0  0  0  0
  -33.9945   -4.6611   30.7585 C   0  0  0  0  0  0  0  0  0  0  0  0
  -34.9728   -4.6422   30.1630 F   0  0  0  0  0  0  0  0  0  0  0  0
  3  7  1  0
  6 13  1  0
  8 14  1  0
  2 15  1  0
 15 16  1  0
 19 21  1  0
 21 23  1  0
 23 24  1  0
 21 25  2  0
 24 26  2  0
 26 27  1  0
 23 28  1  0
 27 28  1  0
 27 29  1  0
 29 30  2  0
 29 31  1  0
  4 32  1  0
 31 33  1  0
 33 34  1  0
 34 35  1  0
  7  8  2  0
  8  9  1  0
  9 10  2  0
 10 12  1  0
 12 11  2  0
 11  7  1  0
  1  2  2  0
  2  3  1  0
  3  4  2  0
  4  5  1  0
  5  6  2  0
  6  1  1  0
 16 17  2  0
 17 20  1  0
 20 22  2  0
 22 19  1  0
 19 18  2  0
 18 16  1  0
M  END

$$$$
