No_734-gen_results/8p0m/2024-11-27-11-27-31/
     RDKit          3D

 30 34  0  0  0  0  0  0  0  0999 V2000
  -28.0162   -0.8135   28.8779 C   0  0  0  0  0  0  0  0  0  0  0  0
  -27.0636   -0.1189   28.6079 C   0  0  0  0  0  0  0  0  0  0  0  0
  -25.7647   -0.3897   29.0360 C   0  0  0  0  0  0  0  0  0  0  0  0
  -25.5296   -1.5302   29.9014 C   0  0  0  0  0  0  0  0  0  0  0  0
  -24.2910   -1.8751   30.3797 C   0  0  0  0  0  0  0  0  0  0  0  0
  -27.9084   -1.9224   29.8277 C   0  0  0  0  0  0  0  0  0  0  0  0
  -26.6512   -2.2902   30.3071 C   0  0  0  0  0  0  0  0  0  0  0  0
  -23.2204   -0.8110   30.2432 C   0  0  0  0  0  0  0  0  0  0  0  0
  -22.5167   -0.6153   29.4899 C   0  0  0  0  0  0  0  0  0  0  0  0
  -21.7724    0.5342   28.9257 C   0  0  0  0  0  0  0  0  0  0  0  0
  -22.1067    1.1253   27.7451 C   0  0  0  0  0  0  0  0  0  0  0  0
  -23.3432    1.7862   27.6055 C   0  0  0  0  0  0  0  0  0  0  0  0
  -23.6294    2.5596   26.4546 C   0  0  0  0  0  0  0  0  0  0  0  0
  -24.8611    3.2538   26.3718 C   0  0  0  0  0  0  0  0  0  0  0  0
  -25.7074    3.2949   27.4721 C   0  0  0  0  0  0  0  0  0  0  0  0
  -26.9181    3.9630   27.3694 C   0  0  0  0  0  0  0  0  0  0  0  0
  -25.0272    3.3744   28.7806 C   0  0  0  0  0  0  0  0  0  0  0  0
  -23.9929    2.3142   28.9385 C   0  0  0  0  0  0  0  0  0  0  0  0
  -27.2036    5.0472   27.9722 C   0  0  0  0  0  0  0  0  0  0  0  0
  -28.5490    5.6123   27.9681 C   0  0  0  0  0  0  0  0  0  0  0  0
  -29.4688    4.9274   27.1446 C   0  0  0  0  0  0  0  0  0  0  0  0
  -27.8539    3.2844   26.5258 C   0  0  0  0  0  0  0  0  0  0  0  0
  -27.5100    2.1249   25.8214 C   0  0  0  0  0  0  0  0  0  0  0  0
  -29.1458    3.8085   26.4044 C   0  0  0  0  0  0  0  0  0  0  0  0
  -27.6104    1.9323   24.6655 C   0  0  0  0  0  0  0  0  0  0  0  0
  -27.4953    0.6744   23.9345 C   0  0  0  0  0  0  0  0  0  0  0  0
  -26.9292   -0.3914   24.7686 C   0  0  0  0  0  0  0  0  0  0  0  0
  -26.4576   -0.1535   26.0040 C   0  0  0  0  0  0  0  0  0  0  0  0
  -26.8101    1.0784   26.6759 C   0  0  0  0  0  0  0  0  0  0  0  0
  -27.1040    0.9798   27.9744 N   0  0  0  0  0  0  0  0  0  0  0  0
  4  5  1  0
  5  8  1  0
  8  9  2  3
  9 10  1  0
 10 11  1  0
 15 16  1  0
 22 23  1  0
  2 30  1  0
 29 30  1  0
 11 12  1  0
 16 19  2  0
 19 20  1  0
 20 21  2  0
 21 24  1  0
 24 22  2  0
 22 16  1  0
 23 25  2  0
 25 26  1  0
 26 27  2  0
 27 28  1  0
 28 29  2  0
 29 23  1  0
 12 13  2  0
 13 14  1  0
 14 15  2  0
 15 17  1  0
 17 18  2  0
 18 12  1  0
  1  2  2  0
  2  3  1  0
  3  4  2  0
  4  7  1  0
  7  6  2  0
  6  1  1  0
M  END

$$$$
