No_787-gen_results/8p0m/2024-11-27-11-27-31/
     RDKit          3D

 30 31  0  0  0  0  0  0  0  0999 V2000
  -28.1229   -1.3353   28.4874 O   0  0  0  0  0  0  0  0  0  0  0  0
  -28.5208   -0.4363   29.0779 C   0  0  0  0  0  0  0  0  0  0  0  0
  -27.9150    0.0780   30.0386 O   0  0  0  0  0  0  0  0  0  0  0  0
  -29.8074    0.1885   28.6630 C   0  0  0  0  0  0  0  0  0  0  0  0
  -29.9411    0.2590   27.4395 C   0  0  0  0  0  0  0  0  0  0  0  0
  -29.0510    0.7058   26.5019 C   0  0  0  0  0  0  0  0  0  0  0  0
  -27.8379    1.0523   26.9936 C   0  0  0  0  0  0  0  0  0  0  0  0
  -26.6540    1.1564   26.1157 C   0  0  0  0  0  0  0  0  0  0  0  0
  -25.3276    1.4628   26.6157 C   0  0  0  0  0  0  0  0  0  0  0  0
  -24.2094    1.5490   25.8041 C   0  0  0  0  0  0  0  0  0  0  0  0
  -24.0936    0.7573   24.7117 C   0  0  0  0  0  0  0  0  0  0  0  0
  -25.3852    0.2365   24.2380 C   0  0  0  0  0  0  0  0  0  0  0  0
  -26.5762    0.3522   24.9376 C   0  0  0  0  0  0  0  0  0  0  0  0
  -22.9636    2.1711   26.3298 C   0  0  0  0  0  0  0  0  0  0  0  0
  -22.2248    1.6691   27.2757 N   0  0  0  0  0  0  0  0  0  0  0  0
  -22.3175    1.1550   28.3363 C   0  0  0  0  0  0  0  0  0  0  0  0
  -21.3118    0.5565   28.9537 N   0  0  0  0  0  0  0  0  0  0  0  0
  -23.4795    1.2007   29.0756 N   0  0  0  0  0  0  0  0  0  0  0  0
  -23.6805    0.6198   30.3165 C   0  0  0  0  0  0  0  0  0  0  0  0
  -24.6776    1.1714   31.1017 C   0  0  0  0  0  0  0  0  0  0  0  0
  -25.1946    0.4268   32.2112 C   0  0  0  0  0  0  0  0  0  0  0  0
  -24.5626   -0.8290   32.4567 C   0  0  0  0  0  0  0  0  0  0  0  0
  -23.5121   -1.2618   31.7239 C   0  0  0  0  0  0  0  0  0  0  0  0
  -23.1284   -0.5958   30.5770 C   0  0  0  0  0  0  0  0  0  0  0  0
  -31.2450    0.0706   26.9063 O   0  0  0  0  0  0  0  0  0  0  0  0
  -29.3132    0.9071   25.2318 O   0  0  0  0  0  0  0  0  0  0  0  0
  -25.3935    2.4349   30.7873 C   0  0  0  0  0  0  0  0  0  0  0  0
  -25.5373    2.6584   29.6338 F   0  0  0  0  0  0  0  0  0  0  0  0
  -26.5438    2.4399   31.4952 F   0  0  0  0  0  0  0  0  0  0  0  0
  -24.6706    3.4612   31.3858 F   0  0  0  0  0  0  0  0  0  0  0  0
  1  2  2  0
  2  3  1  0
  2  4  1  0
  4  5  1  0
  5  6  1  0
  6  7  1  0
 10 14  1  0
 14 15  1  0
 15 16  2  3
 16 17  1  0
 16 18  1  0
 18 19  1  0
  5 25  2  0
  6 26  2  0
 20 27  1  0
 27 28  1  0
 27 29  1  0
 27 30  1  0
  7  8  1  0
  8  9  2  0
  9 10  1  0
 10 11  2  0
 11 12  1  0
 12 13  2  0
 13  8  1  0
 19 20  2  0
 20 21  1  0
 21 22  2  0
 22 23  1  0
 23 24  2  0
 24 19  1  0
M  END

$$$$
