No_789-gen_results/8p0m/2024-11-27-11-27-31/
     RDKit          3D

  7  6  0  0  0  0  0  0  0  0999 V2000
  -28.0162   -0.8135   28.8779 C   0  0  0  0  0  0  0  0  0  0  0  0
  -26.9857   -0.3274   28.4842 Cl  0  0  0  0  0  0  0  0  0  0  0  0
  -29.2685    0.0525   28.7317 C   0  0  0  0  0  0  0  0  0  0  0  0
  -29.0555    1.1437   28.9630 O   0  0  0  0  0  0  0  0  0  0  0  0
  -30.3361   -0.5494   28.4636 O   0  0  0  0  0  0  0  0  0  0  0  0
  -28.0252   -1.9396   29.9042 C   0  0  0  0  0  0  0  0  0  0  0  0
  -28.9644   -2.3313   30.5004 N   0  0  0  0  0  0  0  0  0  0  0  0
  1  2  1  0
  1  3  1  0
  3  4  1  0
  3  5  2  0
  1  6  1  0
  6  7  1  0
M  END

$$$$
