No_725-gen_results/8p0m/2024-11-27-11-27-31/
     RDKit          3D

 25 26  0  0  0  0  0  0  0  0999 V2000
  -28.0544   -1.0498   28.7246 N   0  0  0  0  0  0  0  0  0  0  0  0
  -27.7460   -0.0733   29.0098 C   0  0  0  0  0  0  0  0  0  0  0  0
  -27.1737    0.7565   28.1070 C   0  0  0  0  0  0  0  0  0  0  0  0
  -27.3702    0.6013   26.8571 C   0  0  0  0  0  0  0  0  0  0  0  0
  -26.6779    1.3647   25.8256 C   0  0  0  0  0  0  0  0  0  0  0  0
  -25.7484    2.3384   26.2151 C   0  0  0  0  0  0  0  0  0  0  0  0
  -25.5285    2.5826   27.5694 C   0  0  0  0  0  0  0  0  0  0  0  0
  -26.1617    1.8190   28.4417 C   0  0  0  0  0  0  0  0  0  0  0  0
  -27.4867    0.1455   30.3115 O   0  0  0  0  0  0  0  0  0  0  0  0
  -28.5843   -2.1535   29.7019 C   0  0  0  0  0  0  0  0  0  0  0  0
  -27.6335   -3.2847   29.8791 C   0  0  0  0  0  0  0  0  0  0  0  0
  -26.4277   -3.0924   29.8074 O   0  0  0  0  0  0  0  0  0  0  0  0
  -28.1119   -4.4475   30.1500 O   0  0  0  0  0  0  0  0  0  0  0  0
  -24.5947    3.6426   27.9540 C   0  0  0  0  0  0  0  0  0  0  0  0
  -23.7948    3.3019   28.6708 O   0  0  0  0  0  0  0  0  0  0  0  0
  -24.7690    4.8681   27.5775 O   0  0  0  0  0  0  0  0  0  0  0  0
  -27.0175    1.0895   24.4651 C   0  0  0  0  0  0  0  0  0  0  0  0
  -28.2910    0.4712   24.2438 C   0  0  0  0  0  0  0  0  0  0  0  0
  -29.3629    0.4583   24.0741 C   0  0  0  0  0  0  0  0  0  0  0  0
  -30.4742    1.3371   24.2273 C   0  0  0  0  0  0  0  0  0  0  0  0
  -30.3306    2.4497   25.0359 C   0  0  0  0  0  0  0  0  0  0  0  0
  -31.3935    3.4357   25.1772 C   0  0  0  0  0  0  0  0  0  0  0  0
  -32.5040    3.2700   24.3595 C   0  0  0  0  0  0  0  0  0  0  0  0
  -32.6369    2.2597   23.4805 C   0  0  0  0  0  0  0  0  0  0  0  0
  -31.6395    1.2861   23.3792 C   0  0  0  0  0  0  0  0  0  0  0  0
  1  2  1  0
  2  3  1  0
  2  9  2  0
  1 10  1  0
 10 11  1  0
 11 12  2  0
 11 13  1  0
  7 14  1  0
 14 15  2  0
 14 16  1  0
  5 17  1  0
 17 18  1  0
 18 19  3  0
 19 20  1  0
  3  4  2  0
  4  5  1  0
  5  6  2  0
  6  7  1  0
  7  8  2  0
  8  3  1  0
 20 21  2  0
 21 22  1  0
 22 23  2  0
 23 24  1  0
 24 25  2  0
 25 20  1  0
M  END

$$$$
