No_749-gen_results/8p0m/2024-11-27-11-27-31/
     RDKit          3D

 35 38  0  0  0  0  0  0  0  0999 V2000
  -28.0162   -0.8135   28.8779 C   0  0  0  0  0  0  0  0  0  0  0  0
  -28.4690   -0.7850   29.8287 C   0  0  0  0  0  0  0  0  0  0  0  0
  -26.5455   -0.8762   28.8500 C   0  0  0  0  0  0  0  0  0  0  0  0
  -25.8041   -1.0324   30.0571 C   0  0  0  0  0  0  0  0  0  0  0  0
  -26.5373   -1.0386   31.2171 C   0  0  0  0  0  0  0  0  0  0  0  0
  -27.8843   -0.9532   31.1862 C   0  0  0  0  0  0  0  0  0  0  0  0
  -24.3655   -1.1134   30.0483 C   0  0  0  0  0  0  0  0  0  0  0  0
  -23.9722   -1.9246   30.7322 F   0  0  0  0  0  0  0  0  0  0  0  0
  -23.8378    0.0875   30.5213 F   0  0  0  0  0  0  0  0  0  0  0  0
  -23.8243   -1.1741   28.7995 F   0  0  0  0  0  0  0  0  0  0  0  0
  -25.6427   -2.0876   30.0560 F   0  0  0  0  0  0  0  0  0  0  0  0
  -25.9055   -0.6023   27.7008 O   0  0  0  0  0  0  0  0  0  0  0  0
  -26.4212    0.3157   26.7494 C   0  0  0  0  0  0  0  0  0  0  0  0
  -25.7738    0.3018   25.5436 C   0  0  0  0  0  0  0  0  0  0  0  0
  -27.3549    1.2268   26.9564 C   0  0  0  0  0  0  0  0  0  0  0  0
  -27.7031    2.0919   25.9714 C   0  0  0  0  0  0  0  0  0  0  0  0
  -28.5066    3.1309   26.2911 C   0  0  0  0  0  0  0  0  0  0  0  0
  -29.1423    3.2389   27.4822 C   0  0  0  0  0  0  0  0  0  0  0  0
  -28.7798    2.3431   28.4897 C   0  0  0  0  0  0  0  0  0  0  0  0
  -27.8829    1.3949   28.2731 C   0  0  0  0  0  0  0  0  0  0  0  0
  -26.7891    2.0600   29.2006 O   0  0  0  0  0  0  0  0  0  0  0  0
  -28.7222    3.1247   29.8454 C   0  0  0  0  0  0  0  0  0  0  0  0
  -27.3138    2.8052   30.2099 C   0  0  0  0  0  0  0  0  0  0  0  0
  -26.5866    3.2580   31.3307 C   0  0  0  0  0  0  0  0  0  0  0  0
  -25.4032    3.4663   31.1716 O   0  0  0  0  0  0  0  0  0  0  0  0
  -27.0922    2.9443   32.5966 N   0  0  0  0  0  0  0  0  0  0  0  0
  -26.2677    3.2320   33.7862 C   0  0  0  0  0  0  0  0  0  0  0  0
  -26.0564    0.0663   31.9379 O   0  0  0  0  0  0  0  0  0  0  0  0
  -28.4585    2.6571   32.8617 C   0  0  0  0  0  0  0  0  0  0  0  0
  -28.6504    1.7045   33.9270 C   0  0  0  0  0  0  0  0  0  0  0  0
  -28.0109    2.0680   35.1799 C   0  0  0  0  0  0  0  0  0  0  0  0
  -27.1832    3.1053   35.2157 C   0  0  0  0  0  0  0  0  0  0  0  0
  -28.3456    1.4236   36.4233 C   0  0  0  0  0  0  0  0  0  0  0  0
  -28.3055    1.8442   37.4569 O   0  0  0  0  0  0  0  0  0  0  0  0
  -28.2731    0.0222   36.2893 N   0  0  0  0  0  0  0  0  0  0  0  0
  1  2  2  0
  1  3  1  0
  3  4  1  0
  4  5  1  0
  2  6  1  0
  5  6  2  0
  4  7  1  0
  7  8  1  0
  7  9  1  0
  7 10  1  0
  4 11  1  0
  3 12  1  0
 12 13  1  0
 13 14  2  0
 13 15  1  0
 20 21  1  0
 19 22  1  0
 21 23  1  0
 22 23  2  0
 23 24  1  0
 24 25  2  0
 24 26  1  0
 26 27  1  0
  5 28  1  0
 26 29  1  0
 30 31  1  0
 27 32  1  0
 31 32  1  0
 31 33  1  0
 33 34  2  0
 33 35  1  0
 30 29  1  0
 15 16  2  0
 16 17  1  0
 17 18  2  0
 18 19  1  0
 19 20  2  0
 20 15  1  0
M  END

$$$$
