No_713-gen_results/8p0m/2024-11-27-11-27-31/
     RDKit          3D

 26 28  0  0  0  0  0  0  0  0999 V2000
  -28.0162   -0.8135   28.8779 C   0  0  0  0  0  0  0  0  0  0  0  0
  -27.0636   -0.1189   28.6079 C   0  0  0  0  0  0  0  0  0  0  0  0
  -25.7923   -0.4302   29.0761 C   0  0  0  0  0  0  0  0  0  0  0  0
  -24.5456    0.3494   28.8225 C   0  0  0  0  0  0  0  0  0  0  0  0
  -23.2409    0.0217   29.3323 C   0  0  0  0  0  0  0  0  0  0  0  0
  -22.1362    0.7695   29.0059 C   0  0  0  0  0  0  0  0  0  0  0  0
  -27.9050   -1.8984   29.8729 C   0  0  0  0  0  0  0  0  0  0  0  0
  -26.6795   -2.3145   30.3184 C   0  0  0  0  0  0  0  0  0  0  0  0
  -25.5203   -1.5564   29.9775 C   0  0  0  0  0  0  0  0  0  0  0  0
  -22.1155    1.7338   28.0257 C   0  0  0  0  0  0  0  0  0  0  0  0
  -24.5860    1.6279   28.1059 C   0  0  0  0  0  0  0  0  0  0  0  0
  -23.3581    2.2132   27.6164 C   0  0  0  0  0  0  0  0  0  0  0  0
  -29.0574   -2.7184   30.2915 C   0  0  0  0  0  0  0  0  0  0  0  0
  -29.4601   -2.6423   31.3011 N   0  0  0  0  0  0  0  0  0  0  0  0
  -29.4526   -1.5676   32.0270 C   0  0  0  0  0  0  0  0  0  0  0  0
  -29.9953   -1.6463   33.4479 C   0  0  0  0  0  0  0  0  0  0  0  0
  -30.0805   -3.8546   32.0633 C   0  0  0  0  0  0  0  0  0  0  0  0
  -30.4671   -3.8357   33.3198 C   0  0  0  0  0  0  0  0  0  0  0  0
  -30.4820   -2.6520   34.0314 C   0  0  0  0  0  0  0  0  0  0  0  0
  -29.2388   -3.7186   29.5244 O   0  0  0  0  0  0  0  0  0  0  0  0
  -29.8931   -0.2590   34.2218 C   0  0  0  0  0  0  0  0  0  0  0  0
  -30.0196    0.6866   33.6664 O   0  0  0  0  0  0  0  0  0  0  0  0
  -29.6393   -0.4134   35.5047 O   0  0  0  0  0  0  0  0  0  0  0  0
  -29.3642   -0.4393   28.4461 C   0  0  0  0  0  0  0  0  0  0  0  0
  -29.7322    0.4468   28.7420 O   0  0  0  0  0  0  0  0  0  0  0  0
  -29.7586   -1.0657   27.2878 O   0  0  0  0  0  0  0  0  0  0  0  0
  3  4  1  0
  7 13  1  0
 13 14  1  0
 14 15  1  0
 14 17  1  0
 16 19  1  0
 18 19  1  0
 13 20  2  0
 16 21  1  0
 21 22  2  0
 21 23  1  0
  1 24  1  0
 24 25  1  0
 24 26  2  0
 15 16  1  0
 18 17  1  0
  1  2  2  0
  2  3  1  0
  3  9  2  0
  9  8  1  0
  8  7  2  0
  7  1  1  0
  4  5  2  0
  5  6  1  0
  6 10  2  0
 10 12  1  0
 12 11  2  0
 11  4  1  0
M  END

$$$$
