No_797-gen_results/8p0m/2024-11-27-11-27-31/
     RDKit          3D

 16 17  0  0  0  0  0  0  0  0999 V2000
  -28.0162   -0.8135   28.8779 C   0  0  0  0  0  0  0  0  0  0  0  0
  -27.0636   -0.1190   28.6079 C   0  0  0  0  0  0  0  0  0  0  0  0
  -25.7923   -0.4302   29.0761 C   0  0  0  0  0  0  0  0  0  0  0  0
  -25.5756   -1.5654   29.9363 C   0  0  0  0  0  0  0  0  0  0  0  0
  -26.7354   -2.3004   30.2173 C   0  0  0  0  0  0  0  0  0  0  0  0
  -27.9184   -1.9537   29.7629 C   0  0  0  0  0  0  0  0  0  0  0  0
  -27.1229    1.0229   27.8500 O   0  0  0  0  0  0  0  0  0  0  0  0
  -26.6157    1.8989   27.6272 C   0  0  0  0  0  0  0  0  0  0  0  0
  -25.4095    1.8295   26.7866 C   0  0  0  0  0  0  0  0  0  0  0  0
  -24.2077    1.5517   27.4674 C   0  0  0  0  0  0  0  0  0  0  0  0
  -23.4786    2.7252   28.0519 C   0  0  0  0  0  0  0  0  0  0  0  0
  -23.6373    0.2661   27.4997 C   0  0  0  0  0  0  0  0  0  0  0  0
  -22.3185    0.4277   28.2962 C   0  0  0  0  0  0  0  0  0  0  0  0
  -22.3318    2.5755   28.7465 N   0  0  0  0  0  0  0  0  0  0  0  0
  -21.7758    1.4449   28.8769 C   0  0  0  0  0  0  0  0  0  0  0  0
  -27.4745    3.1535   27.3594 C   0  0  0  0  0  0  0  0  0  0  0  0
  2  7  1  0
  7  8  1  0
  8  9  1  0
  9 10  1  0
  8 16  1  0
  1  2  2  0
  2  3  1  0
  3  4  2  0
  4  5  1  0
  5  6  2  0
  6  1  1  0
 10 11  2  0
 11 14  1  0
 14 15  2  0
 15 13  1  0
 13 12  2  0
 12 10  1  0
M  END

$$$$
