No_792-gen_results/8p0m/2024-11-27-11-27-31/
     RDKit          3D

 34 36  0  0  0  0  0  0  0  0999 V2000
  -28.0162   -0.8135   28.8779 C   0  0  0  0  0  0  0  0  0  0  0  0
  -28.4690   -0.7850   29.8287 C   0  0  0  0  0  0  0  0  0  0  0  0
  -28.1816    0.4277   28.1134 C   0  0  0  0  0  0  0  0  0  0  0  0
  -28.9841    1.4155   28.5154 C   0  0  0  0  0  0  0  0  0  0  0  0
  -29.3802    0.1384   30.4612 C   0  0  0  0  0  0  0  0  0  0  0  0
  -29.5415    1.2736   29.7242 C   0  0  0  0  0  0  0  0  0  0  0  0
  -27.4586    0.4934   26.7701 C   0  0  0  0  0  0  0  0  0  0  0  0
  -27.9200    0.7178   25.7507 C   0  0  0  0  0  0  0  0  0  0  0  0
  -27.5755    0.5280   24.7342 C   0  0  0  0  0  0  0  0  0  0  0  0
  -26.1468   -0.0095   24.5234 C   0  0  0  0  0  0  0  0  0  0  0  0
  -25.4678   -0.2231   25.6842 C   0  0  0  0  0  0  0  0  0  0  0  0
  -26.0973   -0.0674   26.8662 C   0  0  0  0  0  0  0  0  0  0  0  0
  -30.3734    2.2450   30.2080 F   0  0  0  0  0  0  0  0  0  0  0  0
  -28.2371   -2.2912   30.8890 Cl  0  0  0  0  0  0  0  0  0  0  0  0
  -25.0813   -0.4395   28.3954 Br  0  0  0  0  0  0  0  0  0  0  0  0
  -29.1725    2.8191   27.5705 Cl  0  0  0  0  0  0  0  0  0  0  0  0
  -28.0737    0.7842   23.4717 O   0  0  0  0  0  0  0  0  0  0  0  0
  -29.4112    0.5003   23.5868 C   0  0  0  0  0  0  0  0  0  0  0  0
  -30.1740    1.4465   24.3647 C   0  0  0  0  0  0  0  0  0  0  0  0
  -31.5512    1.2880   24.1708 C   0  0  0  0  0  0  0  0  0  0  0  0
  -32.3966    2.3932   24.4722 C   0  0  0  0  0  0  0  0  0  0  0  0
  -31.8132    3.5352   25.1471 C   0  0  0  0  0  0  0  0  0  0  0  0
  -30.4687    3.7000   25.1722 C   0  0  0  0  0  0  0  0  0  0  0  0
  -29.6497    2.7484   24.6667 C   0  0  0  0  0  0  0  0  0  0  0  0
  -33.8490    2.2465   24.4433 C   0  0  0  0  0  0  0  0  0  0  0  0
  -34.3801    1.5655   25.1052 O   0  0  0  0  0  0  0  0  0  0  0  0
  -34.4742    3.0698   23.4957 N   0  0  0  0  0  0  0  0  0  0  0  0
  -35.9211    2.9925   23.3068 C   0  0  0  0  0  0  0  0  0  0  0  0
  -33.8058    4.0436   22.6472 C   0  0  0  0  0  0  0  0  0  0  0  0
  -34.3489    4.3275   21.4580 C   0  0  0  0  0  0  0  0  0  0  0  0
  -33.9561    4.8407   20.6224 C   0  0  0  0  0  0  0  0  0  0  0  0
  -34.6642    5.0711   19.3425 C   0  0  0  0  0  0  0  0  0  0  0  0
  -35.9216    4.5850   19.2683 C   0  0  0  0  0  0  0  0  0  0  0  0
  -36.4489    3.9540   20.2766 C   0  0  0  0  0  0  0  0  0  0  0  0
  3  7  1  0
  6 13  1  0
  2 14  1  0
 12 15  1  0
  4 16  1  0
  9 17  1  0
 17 18  1  0
 21 25  1  0
 25 26  2  0
 25 27  1  0
 27 28  1  0
 27 29  1  0
 29 30  2  3
 30 31  1  0
 31 32  2  3
 32 33  1  0
 33 34  2  0
 18 19  1  0
 19 20  2  0
 20 21  1  0
 21 22  2  0
 22 23  1  0
 23 24  2  0
 24 19  1  0
  1  2  2  0
  2  5  1  0
  5  6  2  0
  6  4  1  0
  4  3  2  0
  3  1  1  0
  7  8  2  0
  8  9  1  0
  9 10  2  0
 10 11  1  0
 11 12  2  0
 12  7  1  0
M  END

$$$$
