No_730-gen_results/8p0m/2024-11-27-11-27-31/
     RDKit          3D

 31 34  0  0  0  0  0  0  0  0999 V2000
  -28.1229   -1.3353   28.4874 O   0  0  0  0  0  0  0  0  0  0  0  0
  -27.4806   -0.4044   28.7094 C   0  0  0  0  0  0  0  0  0  0  0  0
  -26.3804   -0.0867   27.9394 C   0  0  0  0  0  0  0  0  0  0  0  0
  -27.6665    0.4468   29.8988 N   0  0  0  0  0  0  0  0  0  0  0  0
  -26.4086    0.8567   26.8802 C   0  0  0  0  0  0  0  0  0  0  0  0
  -27.5818    1.4877   26.5909 C   0  0  0  0  0  0  0  0  0  0  0  0
  -28.6543    1.3606   27.2050 C   0  0  0  0  0  0  0  0  0  0  0  0
  -28.4017    1.6141   29.6014 C   0  0  0  0  0  0  0  0  0  0  0  0
  -28.9009    2.0348   28.4229 C   0  0  0  0  0  0  0  0  0  0  0  0
  -25.1324   -0.8842   28.2003 C   0  0  0  0  0  0  0  0  0  0  0  0
  -23.9380   -0.1702   28.5269 C   0  0  0  0  0  0  0  0  0  0  0  0
  -23.5595    1.0881   28.1556 C   0  0  0  0  0  0  0  0  0  0  0  0
  -22.4717    1.5540   28.2783 C   0  0  0  0  0  0  0  0  0  0  0  0
  -21.3566    0.8562   28.8340 C   0  0  0  0  0  0  0  0  0  0  0  0
  -22.8761   -0.9832   29.0554 C   0  0  0  0  0  0  0  0  0  0  0  0
  -21.5895   -0.4522   29.2106 C   0  0  0  0  0  0  0  0  0  0  0  0
  -27.2934   -0.0940   31.1242 C   0  0  0  0  0  0  0  0  0  0  0  0
  -27.7049   -1.1413   31.5834 C   0  0  0  0  0  0  0  0  0  0  0  0
  -28.5766   -1.0765   32.7357 C   0  0  0  0  0  0  0  0  0  0  0  0
  -29.3490   -2.1990   33.0278 C   0  0  0  0  0  0  0  0  0  0  0  0
  -29.2702   -3.3736   32.2516 C   0  0  0  0  0  0  0  0  0  0  0  0
  -28.4997   -3.4201   31.0734 C   0  0  0  0  0  0  0  0  0  0  0  0
  -27.6685   -2.3384   30.7960 C   0  0  0  0  0  0  0  0  0  0  0  0
  -29.7497    0.6654   26.6029 C   0  0  0  0  0  0  0  0  0  0  0  0
  -29.8338    0.5775   25.2641 C   0  0  0  0  0  0  0  0  0  0  0  0
  -30.8299    0.0123   27.3421 C   0  0  0  0  0  0  0  0  0  0  0  0
  -31.7965    0.2523   27.1890 C   0  0  0  0  0  0  0  0  0  0  0  0
  -32.8649   -0.2884   28.0955 C   0  0  0  0  0  0  0  0  0  0  0  0
  -32.4091   -1.0950   29.1531 C   0  0  0  0  0  0  0  0  0  0  0  0
  -31.0779   -1.3355   29.3428 C   0  0  0  0  0  0  0  0  0  0  0  0
  -30.1966   -0.7506   28.5107 C   0  0  0  0  0  0  0  0  0  0  0  0
  1  2  2  0
  2  3  1  0
  2  4  1  0
  3  5  2  3
  5  6  1  0
  6  7  1  0
  4  8  1  0
  7  9  2  0
  8  9  2  0
  3 10  1  0
 10 11  1  0
  4 17  1  0
 17 18  1  0
  7 24  1  0
 24 25  1  0
 24 26  1  0
 18 19  2  0
 19 20  1  0
 20 21  2  0
 21 22  1  0
 22 23  2  0
 23 18  1  0
 11 12  2  0
 12 13  1  0
 13 14  2  0
 14 16  1  0
 16 15  2  0
 15 11  1  0
 26 27  2  0
 27 28  1  0
 28 29  2  0
 29 30  1  0
 30 31  2  0
 31 26  1  0
M  END

$$$$
