No_782-gen_results/8p0m/2024-11-27-11-27-31/
     RDKit          3D

 35 38  0  0  0  0  0  0  0  0999 V2000
  -28.0162   -0.8135   28.8779 C   0  0  0  0  0  0  0  0  0  0  0  0
  -28.4690   -0.7850   29.8287 C   0  0  0  0  0  0  0  0  0  0  0  0
  -27.1356    0.2359   28.5352 C   0  0  0  0  0  0  0  0  0  0  0  0
  -26.8745    1.2825   29.3982 C   0  0  0  0  0  0  0  0  0  0  0  0
  -28.3613    0.1987   30.9244 C   0  0  0  0  0  0  0  0  0  0  0  0
  -27.5277    1.2234   30.6356 C   0  0  0  0  0  0  0  0  0  0  0  0
  -26.3987    0.2949   27.2279 C   0  0  0  0  0  0  0  0  0  0  0  0
  -26.9022    0.7280   26.2134 C   0  0  0  0  0  0  0  0  0  0  0  0
  -28.2290    1.2592   26.1972 C   0  0  0  0  0  0  0  0  0  0  0  0
  -28.8635    1.6436   27.2292 C   0  0  0  0  0  0  0  0  0  0  0  0
  -30.1847    2.3713   26.9598 C   0  0  0  0  0  0  0  0  0  0  0  0
  -30.5969    2.4774   25.6524 C   0  0  0  0  0  0  0  0  0  0  0  0
  -28.6567    1.6903   24.8535 C   0  0  0  0  0  0  0  0  0  0  0  0
  -29.8413    2.2292   24.6172 C   0  0  0  0  0  0  0  0  0  0  0  0
  -25.0878   -0.3383   27.3889 C   0  0  0  0  0  0  0  0  0  0  0  0
  -23.9736    0.6369   27.5910 C   0  0  0  0  0  0  0  0  0  0  0  0
  -22.9666    0.3550   28.5734 C   0  0  0  0  0  0  0  0  0  0  0  0
  -23.1273   -0.3750   29.7121 C   0  0  0  0  0  0  0  0  0  0  0  0
  -25.9892    0.4886   24.7259 Cl  0  0  0  0  0  0  0  0  0  0  0  0
  -23.5798    0.2085   30.6725 C   0  0  0  0  0  0  0  0  0  0  0  0
  -23.9629    1.5352   30.8274 C   0  0  0  0  0  0  0  0  0  0  0  0
  -24.5299    2.1051   32.0246 C   0  0  0  0  0  0  0  0  0  0  0  0
  -24.7606    3.5183   32.1275 C   0  0  0  0  0  0  0  0  0  0  0  0
  -25.0806    4.1323   33.3304 C   0  0  0  0  0  0  0  0  0  0  0  0
  -25.0735    5.5542   33.4219 C   0  0  0  0  0  0  0  0  0  0  0  0
  -24.7030    6.3255   32.2894 C   0  0  0  0  0  0  0  0  0  0  0  0
  -24.5280    5.7411   31.1039 C   0  0  0  0  0  0  0  0  0  0  0  0
  -24.4315    4.3868   31.0401 C   0  0  0  0  0  0  0  0  0  0  0  0
  -23.8419    1.7851   26.7531 C   0  0  0  0  0  0  0  0  0  0  0  0
  -24.6299    2.9347   26.7803 C   0  0  0  0  0  0  0  0  0  0  0  0
  -24.3975    4.0666   26.0305 C   0  0  0  0  0  0  0  0  0  0  0  0
  -25.2295    5.2110   26.1698 C   0  0  0  0  0  0  0  0  0  0  0  0
  -26.0870    5.2794   27.3268 C   0  0  0  0  0  0  0  0  0  0  0  0
  -26.2408    4.1786   28.1637 C   0  0  0  0  0  0  0  0  0  0  0  0
  -25.4618    3.1408   27.9661 C   0  0  0  0  0  0  0  0  0  0  0  0
  3  7  1  0
  7  8  2  3
  8  9  1  0
  7 15  1  0
 15 16  1  0
 16 17  1  0
 17 18  1  0
  8 19  1  0
 18 20  1  0
 20 21  2  3
 21 22  1  0
 16 29  1  0
 29 30  1  0
 22 23  1  0
 23 24  2  0
 24 25  1  0
 25 26  2  0
 26 27  1  0
 27 28  2  0
 28 23  1  0
 30 31  2  0
 31 32  1  0
 32 33  2  0
 33 34  1  0
 34 35  2  0
 35 30  1  0
  1  2  2  0
  2  5  1  0
  5  6  2  0
  6  4  1  0
  4  3  2  0
  3  1  1  0
  9 10  2  0
 10 11  1  0
 11 12  2  0
 12 14  1  0
 14 13  2  0
 13  9  1  0
M  END

$$$$
