No_79-gen_results/8p0m/2024-11-27-11-27-31/
     RDKit          3D

 33 38  0  0  0  0  0  0  0  0999 V2000
  -28.1229   -1.3353   28.4874 O   0  0  0  0  0  0  0  0  0  0  0  0
  -28.5208   -0.4363   29.0779 C   0  0  0  0  0  0  0  0  0  0  0  0
  -28.5894    0.5916   28.9464 C   0  0  0  0  0  0  0  0  0  0  0  0
  -28.7866   -0.8872   30.4874 N   0  0  0  0  0  0  0  0  0  0  0  0
  -27.7841    1.2822   27.9869 C   0  0  0  0  0  0  0  0  0  0  0  0
  -28.0838    1.5823   26.7801 C   0  0  0  0  0  0  0  0  0  0  0  0
  -27.1210    2.0132   25.7117 C   0  0  0  0  0  0  0  0  0  0  0  0
  -25.7656    2.1252   26.0617 C   0  0  0  0  0  0  0  0  0  0  0  0
  -25.3777    1.7748   27.4171 C   0  0  0  0  0  0  0  0  0  0  0  0
  -26.3154    1.3420   28.2647 C   0  0  0  0  0  0  0  0  0  0  0  0
  -28.7205   -2.2974   30.9281 C   0  0  0  0  0  0  0  0  0  0  0  0
  -29.3202    0.0098   31.4965 C   0  0  0  0  0  0  0  0  0  0  0  0
  -23.9534    1.8973   27.7332 C   0  0  0  0  0  0  0  0  0  0  0  0
  -22.9717    1.7939   26.9080 N   0  0  0  0  0  0  0  0  0  0  0  0
  -23.5751    1.1646   29.0350 C   0  0  0  0  0  0  0  0  0  0  0  0
  -21.6938    1.6965   27.4631 C   0  0  0  0  0  0  0  0  0  0  0  0
  -24.4945    1.3015   30.1511 C   0  0  0  0  0  0  0  0  0  0  0  0
  -22.3629    0.5590   29.1548 C   0  0  0  0  0  0  0  0  0  0  0  0
  -21.3951    0.8888   28.3635 N   0  0  0  0  0  0  0  0  0  0  0  0
  -24.0669    0.9739   31.5158 C   0  0  0  0  0  0  0  0  0  0  0  0
  -25.8994    1.5284   29.8207 C   0  0  0  0  0  0  0  0  0  0  0  0
  -30.0719   -0.4209   32.4914 C   0  0  0  0  0  0  0  0  0  0  0  0
  -27.6836   -2.9192   30.6034 C   0  0  0  0  0  0  0  0  0  0  0  0
  -27.6776   -4.3530   30.2986 C   0  0  0  0  0  0  0  0  0  0  0  0
  -26.5893   -4.9916   29.9669 F   0  0  0  0  0  0  0  0  0  0  0  0
  -30.5132    0.5161   33.4080 C   0  0  0  0  0  0  0  0  0  0  0  0
  -30.2482    1.8871   33.2347 C   0  0  0  0  0  0  0  0  0  0  0  0
  -29.5082    2.3161   32.1473 C   0  0  0  0  0  0  0  0  0  0  0  0
  -29.0446    1.4330   31.3177 C   0  0  0  0  0  0  0  0  0  0  0  0
  -28.9017   -5.0336   30.2788 C   0  0  0  0  0  0  0  0  0  0  0  0
  -30.1350   -4.3992   30.4616 C   0  0  0  0  0  0  0  0  0  0  0  0
  -30.0237   -2.9219   30.7893 C   0  0  0  0  0  0  0  0  0  0  0  0
  -28.9279    1.7587   29.7439 C   0  0  0  0  0  0  0  0  0  0  0  0
  1  2  2  0
  2  3  1  0
  2  4  1  0
  3  5  1  0
  4 11  1  0
  4 12  1  0
  9 13  1  0
 15 17  1  0
 17 20  1  0
 10 21  1  0
 17 21  1  0
 24 25  1  0
  3 33  1  0
 29 33  1  0
  5  6  2  0
  6  7  1  0
  7  8  2  0
  8  9  1  0
  9 10  2  0
 10  5  1  0
 12 22  2  0
 22 26  1  0
 26 27  2  0
 27 28  1  0
 28 29  2  0
 29 12  1  0
 13 14  2  0
 14 16  1  0
 16 19  2  0
 19 18  1  0
 18 15  2  0
 15 13  1  0
 11 23  2  0
 23 24  1  0
 24 30  2  0
 30 31  1  0
 31 32  2  0
 32 11  1  0
M  END

$$$$
