No_752-gen_results/8p0m/2024-11-27-11-27-31/
     RDKit          3D

 23 24  0  0  0  0  0  0  0  0999 V2000
  -28.0162   -0.8135   28.8779 C   0  0  0  0  0  0  0  0  0  0  0  0
  -27.0636   -0.1189   28.6079 C   0  0  0  0  0  0  0  0  0  0  0  0
  -25.7647   -0.3897   29.0360 C   0  0  0  0  0  0  0  0  0  0  0  0
  -25.5296   -1.5302   29.9014 C   0  0  0  0  0  0  0  0  0  0  0  0
  -26.6577   -2.2915   30.2035 C   0  0  0  0  0  0  0  0  0  0  0  0
  -27.8432   -1.9747   29.7510 C   0  0  0  0  0  0  0  0  0  0  0  0
  -24.5451    0.4095   28.7440 C   0  0  0  0  0  0  0  0  0  0  0  0
  -24.4773    1.1989   27.7085 C   0  0  0  0  0  0  0  0  0  0  0  0
  -23.2689    1.9096   27.3924 C   0  0  0  0  0  0  0  0  0  0  0  0
  -22.1028    1.7113   28.0514 C   0  0  0  0  0  0  0  0  0  0  0  0
  -23.3095    0.1707   29.4784 C   0  0  0  0  0  0  0  0  0  0  0  0
  -22.1062    0.8383   29.1121 C   0  0  0  0  0  0  0  0  0  0  0  0
  -28.9251   -2.7383   30.1185 O   0  0  0  0  0  0  0  0  0  0  0  0
  -28.7835   -4.0289   30.5914 C   0  0  0  0  0  0  0  0  0  0  0  0
  -29.9872   -4.8168   30.2620 C   0  0  0  0  0  0  0  0  0  0  0  0
  -31.0782   -4.2754   30.8214 C   0  0  0  0  0  0  0  0  0  0  0  0
  -31.2572   -3.4459   31.5251 C   0  0  0  0  0  0  0  0  0  0  0  0
  -31.8786   -2.6445   31.9647 C   0  0  0  0  0  0  0  0  0  0  0  0
  -32.0584   -1.5596   32.5011 C   0  0  0  0  0  0  0  0  0  0  0  0
  -32.2162   -0.4769   32.9095 C   0  0  0  0  0  0  0  0  0  0  0  0
  -32.8657   -0.4759   33.8170 F   0  0  0  0  0  0  0  0  0  0  0  0
  -32.6865    0.3781   31.9304 F   0  0  0  0  0  0  0  0  0  0  0  0
  -31.2293   -1.6386   33.0789 F   0  0  0  0  0  0  0  0  0  0  0  0
  3  7  1  0
  6 13  1  0
 13 14  1  0
 14 15  1  0
 15 16  1  0
 16 17  2  3
 17 18  1  0
 18 19  2  3
 19 20  1  0
 20 21  1  0
 20 22  1  0
 19 23  1  0
  7  8  2  0
  8  9  1  0
  9 10  2  0
 10 12  1  0
 12 11  2  0
 11  7  1  0
  1  2  2  0
  2  3  1  0
  3  4  2  0
  4  5  1  0
  5  6  2  0
  6  1  1  0
M  END

$$$$
