No_721-gen_results/8p0m/2024-11-27-11-27-31/
     RDKit          3D

 28 31  0  0  0  0  0  0  0  0999 V2000
  -28.0162   -0.8135   28.8779 C   0  0  0  0  0  0  0  0  0  0  0  0
  -27.0636   -0.1189   28.6079 C   0  0  0  0  0  0  0  0  0  0  0  0
  -25.7647   -0.3897   29.0360 C   0  0  0  0  0  0  0  0  0  0  0  0
  -24.5516    0.4058   28.7646 C   0  0  0  0  0  0  0  0  0  0  0  0
  -24.6957    1.4480   27.7988 C   0  0  0  0  0  0  0  0  0  0  0  0
  -25.9755    1.7250   27.3077 C   0  0  0  0  0  0  0  0  0  0  0  0
  -27.0718    1.0134   27.6535 C   0  0  0  0  0  0  0  0  0  0  0  0
  -29.2099   -0.0501   29.3493 C   0  0  0  0  0  0  0  0  0  0  0  0
  -30.3469   -0.8660   29.6614 C   0  0  0  0  0  0  0  0  0  0  0  0
  -23.4932    2.1959   27.4902 C   0  0  0  0  0  0  0  0  0  0  0  0
  -22.4670    1.9107   27.8265 F   0  0  0  0  0  0  0  0  0  0  0  0
  -23.4140    2.2412   26.0140 F   0  0  0  0  0  0  0  0  0  0  0  0
  -23.7816    3.5585   27.7829 F   0  0  0  0  0  0  0  0  0  0  0  0
  -31.4052   -0.8722   28.9871 N   0  0  0  0  0  0  0  0  0  0  0  0
  -31.5070   -0.1904   27.9505 C   0  0  0  0  0  0  0  0  0  0  0  0
  -30.7931    0.9021   27.7992 C   0  0  0  0  0  0  0  0  0  0  0  0
  -29.3490    0.7702   28.2365 C   0  0  0  0  0  0  0  0  0  0  0  0
  -28.4982    1.4777   27.5113 C   0  0  0  0  0  0  0  0  0  0  0  0
  -30.1581   -1.7424   30.6818 O   0  0  0  0  0  0  0  0  0  0  0  0
  -28.9644    0.9542   30.5395 C   0  0  0  0  0  0  0  0  0  0  0  0
  -32.4738   -1.9136   29.3288 C   0  0  0  0  0  0  0  0  0  0  0  0
  -25.3756   -1.5621   29.9356 C   0  0  0  0  0  0  0  0  0  0  0  0
  -24.2506   -2.1533   29.8559 C   0  0  0  0  0  0  0  0  0  0  0  0
  -28.2299    0.5429   31.5793 C   0  0  0  0  0  0  0  0  0  0  0  0
  -27.9709    1.4390   32.6381 C   0  0  0  0  0  0  0  0  0  0  0  0
  -28.3458    2.7597   32.5423 C   0  0  0  0  0  0  0  0  0  0  0  0
  -29.4823    2.2854   30.5260 C   0  0  0  0  0  0  0  0  0  0  0  0
  -29.1486    3.2058   31.5360 C   0  0  0  0  0  0  0  0  0  0  0  0
  2  3  1  0
  3  4  1  0
  4  5  1  0
  5  6  1  0
  2  7  1  0
  6  7  1  0
  1  8  1  0
  8  9  1  0
  5 10  1  0
 10 11  1  0
 10 12  1  0
 10 13  1  0
  9 14  1  0
 14 15  1  0
  8 17  1  0
 16 17  1  0
  7 18  1  0
 17 18  1  0
  9 19  2  0
  8 20  1  0
 14 21  1  0
  3 22  1  0
 22 23  2  0
 16 15  1  0
  1  2  1  0
 20 24  2  0
 24 25  1  0
 25 26  2  0
 26 28  1  0
 28 27  2  0
 27 20  1  0
M  END

$$$$
