No_71-gen_results/8p0m/2024-11-27-11-27-31/
     RDKit          3D

 35 38  0  0  0  0  0  0  0  0999 V2000
  -28.0162   -0.8135   28.8779 C   0  0  0  0  0  0  0  0  0  0  0  0
  -27.0636   -0.1189   28.6079 C   0  0  0  0  0  0  0  0  0  0  0  0
  -25.7923   -0.4302   29.0761 C   0  0  0  0  0  0  0  0  0  0  0  0
  -25.5756   -1.5654   29.9363 C   0  0  0  0  0  0  0  0  0  0  0  0
  -26.7354   -2.3004   30.2173 C   0  0  0  0  0  0  0  0  0  0  0  0
  -27.9184   -1.9537   29.7629 C   0  0  0  0  0  0  0  0  0  0  0  0
  -29.0001   -2.7012   30.1151 O   0  0  0  0  0  0  0  0  0  0  0  0
  -24.3499    0.4889   28.7497 Cl  0  0  0  0  0  0  0  0  0  0  0  0
  -29.3705   -2.8230   31.4465 C   0  0  0  0  0  0  0  0  0  0  0  0
  -29.9499   -1.8071   31.9917 C   0  0  0  0  0  0  0  0  0  0  0  0
  -30.5022   -0.8733   31.3027 C   0  0  0  0  0  0  0  0  0  0  0  0
  -31.3530   -1.1101   30.5660 O   0  0  0  0  0  0  0  0  0  0  0  0
  -29.9073   -1.7727   33.3723 O   0  0  0  0  0  0  0  0  0  0  0  0
  -30.0716    0.4725   31.5055 N   0  0  0  0  0  0  0  0  0  0  0  0
  -30.5993    1.5897   30.7429 C   0  0  0  0  0  0  0  0  0  0  0  0
  -30.9802    2.5667   31.4663 C   0  0  0  0  0  0  0  0  0  0  0  0
  -30.2721    2.9499   32.6565 C   0  0  0  0  0  0  0  0  0  0  0  0
  -29.5136    1.8726   33.3152 C   0  0  0  0  0  0  0  0  0  0  0  0
  -29.4188    0.7304   32.6968 C   0  0  0  0  0  0  0  0  0  0  0  0
  -27.1326    1.1477   27.7344 C   0  0  0  0  0  0  0  0  0  0  0  0
  -26.9231    1.0917   26.4339 C   0  0  0  0  0  0  0  0  0  0  0  0
  -26.9976    2.1077   25.6353 C   0  0  0  0  0  0  0  0  0  0  0  0
  -27.3693    3.1128   25.9012 C   0  0  0  0  0  0  0  0  0  0  0  0
  -27.7275    3.4552   27.3092 C   0  0  0  0  0  0  0  0  0  0  0  0
  -27.6099    2.4159   28.2083 C   0  0  0  0  0  0  0  0  0  0  0  0
  -30.8764   -2.3531   33.9074 C   0  0  0  0  0  0  0  0  0  0  0  0
  -31.0240   -1.9469   35.1603 C   0  0  0  0  0  0  0  0  0  0  0  0
  -30.0966   -1.3381   35.8583 C   0  0  0  0  0  0  0  0  0  0  0  0
  -29.5392   -1.6424   36.8599 C   0  0  0  0  0  0  0  0  0  0  0  0
  -28.3807   -0.9990   37.5771 C   0  0  0  0  0  0  0  0  0  0  0  0
  -27.9077    0.2167   36.9790 C   0  0  0  0  0  0  0  0  0  0  0  0
  -28.5518    0.6395   35.8172 C   0  0  0  0  0  0  0  0  0  0  0  0
  -29.5624   -0.0522   35.2614 C   0  0  0  0  0  0  0  0  0  0  0  0
  -30.3363    0.7426   34.3174 C   0  0  0  0  0  0  0  0  0  0  0  0
  -31.6587    1.0014   34.2364 C   0  0  0  0  0  0  0  0  0  0  0  0
  6  7  1  0
  3  8  1  0
  7  9  1  0
  9 10  1  0
 10 11  1  0
 11 12  2  0
 10 13  1  0
 11 14  1  0
 14 15  1  0
 16 17  1  0
 14 19  1  0
 18 19  1  0
  2 20  1  0
 13 26  1  0
 26 27  2  3
 27 28  1  0
 18 34  1  0
 34 35  1  0
 15 16  1  0
 17 18  1  0
 28 29  2  0
 29 30  1  0
 30 31  2  0
 31 32  1  0
 32 33  2  0
 33 28  1  0
  1  2  2  0
  2  3  1  0
  3  4  2  0
  4  5  1  0
  5  6  2  0
  6  1  1  0
 20 21  2  0
 21 22  1  0
 22 23  2  0
 23 24  1  0
 24 25  2  0
 25 20  1  0
M  END

$$$$
