No_758-gen_results/8p0m/2024-11-27-11-27-31/
     RDKit          3D

 12 13  0  0  0  0  0  0  0  0999 V2000
  -28.0162   -0.8135   28.8779 C   0  0  0  0  0  0  0  0  0  0  0  0
  -28.4690   -0.7850   29.8287 C   0  0  0  0  0  0  0  0  0  0  0  0
  -27.0871    0.2903   28.6377 C   0  0  0  0  0  0  0  0  0  0  0  0
  -26.7676    1.0274   29.4716 C   0  0  0  0  0  0  0  0  0  0  0  0
  -28.2764    0.0268   31.0145 C   0  0  0  0  0  0  0  0  0  0  0  0
  -27.3287    1.0538   30.7535 C   0  0  0  0  0  0  0  0  0  0  0  0
  -26.2884    0.4785   27.3190 C   0  0  0  0  0  0  0  0  0  0  0  0
  -25.2101    0.9867   27.2328 C   0  0  0  0  0  0  0  0  0  0  0  0
  -24.7931    1.9065   28.3206 C   0  0  0  0  0  0  0  0  0  0  0  0
  -25.5114    1.8596   29.5052 C   0  0  0  0  0  0  0  0  0  0  0  0
  -23.5761    2.7302   28.0763 C   0  0  0  0  0  0  0  0  0  0  0  0
  -22.7917    2.4320   27.0081 N   0  0  0  0  0  0  0  0  0  0  0  0
  9 11  1  0
 11 12  2  0
  4 10  2  0
 10  9  1  0
  9  8  2  0
  8  7  1  0
  7  3  2  0
  1  2  2  0
  2  5  1  0
  5  6  2  0
  6  4  1  0
  4  3  1  0
  3  1  1  0
M  END

$$$$
