No_766-gen_results/8p0m/2024-11-27-11-27-31/
     RDKit          3D

 20 22  0  0  0  0  0  0  0  0999 V2000
  -28.0162   -0.8135   28.8779 C   0  0  0  0  0  0  0  0  0  0  0  0
  -27.0636   -0.1189   28.6079 C   0  0  0  0  0  0  0  0  0  0  0  0
  -26.8756    1.1325   28.9134 C   0  0  0  0  0  0  0  0  0  0  0  0
  -25.6883    1.9515   28.5672 C   0  0  0  0  0  0  0  0  0  0  0  0
  -24.6394    1.2834   27.8753 C   0  0  0  0  0  0  0  0  0  0  0  0
  -24.8068   -0.0513   27.6040 C   0  0  0  0  0  0  0  0  0  0  0  0
  -25.9019   -0.7670   27.9511 C   0  0  0  0  0  0  0  0  0  0  0  0
  -28.6455   -0.5282   30.2428 C   0  0  0  0  0  0  0  0  0  0  0  0
  -28.9122    0.7961   30.4353 C   0  0  0  0  0  0  0  0  0  0  0  0
  -27.6444    1.6294   30.2030 C   0  0  0  0  0  0  0  0  0  0  0  0
  -23.4710    1.9776   27.3672 C   0  0  0  0  0  0  0  0  0  0  0  0
  -23.4181    2.7543   26.5189 O   0  0  0  0  0  0  0  0  0  0  0  0
  -22.3860    2.0047   28.3035 O   0  0  0  0  0  0  0  0  0  0  0  0
  -29.4090    1.2015   31.8492 C   0  0  0  0  0  0  0  0  0  0  0  0
  -29.5951    1.2535   29.2518 C   0  0  0  0  0  0  0  0  0  0  0  0
  -30.7664    1.9268   29.3497 C   0  0  0  0  0  0  0  0  0  0  0  0
  -31.2780    2.4644   28.6034 C   0  0  0  0  0  0  0  0  0  0  0  0
  -30.5901    1.8722   31.9166 C   0  0  0  0  0  0  0  0  0  0  0  0
  -31.1313    2.2221   30.7930 C   0  0  0  0  0  0  0  0  0  0  0  0
  -32.5282    3.1245   28.6408 C   0  0  0  0  0  0  0  0  0  0  0  0
  2  3  1  0
  3  4  1  0
  4  5  1  0
  5  6  1  0
  2  7  1  0
  6  7  1  0
  1  8  1  0
  8  9  1  0
  3 10  1  0
  9 10  1  0
  5 11  1  0
 11 12  2  0
 11 13  1  0
  9 14  1  0
  9 15  1  0
 15 16  1  0
 16 19  1  0
 18 19  1  0
 17 20  1  0
 17 16  1  0
 14 18  1  0
  1  2  1  0
M  END

$$$$
