No_711-gen_results/8p0m/2024-11-27-11-27-31/
     RDKit          3D

 19 20  0  0  0  0  0  0  0  0999 V2000
  -28.0162   -0.8135   28.8779 C   0  0  0  0  0  0  0  0  0  0  0  0
  -27.0636   -0.1190   28.6079 C   0  0  0  0  0  0  0  0  0  0  0  0
  -26.9287    1.1713   29.0083 C   0  0  0  0  0  0  0  0  0  0  0  0
  -25.7702    2.0341   28.6884 C   0  0  0  0  0  0  0  0  0  0  0  0
  -25.6189    3.3482   29.0918 C   0  0  0  0  0  0  0  0  0  0  0  0
  -29.0712   -0.3338   29.7689 C   0  0  0  0  0  0  0  0  0  0  0  0
  -29.0128    0.9333   30.1718 C   0  0  0  0  0  0  0  0  0  0  0  0
  -27.8993    1.7759   29.8587 C   0  0  0  0  0  0  0  0  0  0  0  0
  -24.7637    1.5278   27.7799 C   0  0  0  0  0  0  0  0  0  0  0  0
  -23.6558    2.3377   27.4155 C   0  0  0  0  0  0  0  0  0  0  0  0
  -24.6190    4.2235   28.5229 C   0  0  0  0  0  0  0  0  0  0  0  0
  -23.6236    3.6589   27.7229 C   0  0  0  0  0  0  0  0  0  0  0  0
  -30.3130   -1.4114   30.1383 Cl  0  0  0  0  0  0  0  0  0  0  0  0
  -25.7728   -0.7767   27.5704 Cl  0  0  0  0  0  0  0  0  0  0  0  0
  -22.6952    1.8776   26.5795 O   0  0  0  0  0  0  0  0  0  0  0  0
  -30.0793    1.5329   31.0656 C   0  0  0  0  0  0  0  0  0  0  0  0
  -29.9042    1.5460   32.2590 N   0  0  0  0  0  0  0  0  0  0  0  0
  -29.8839    2.0938   33.1438 C   0  0  0  0  0  0  0  0  0  0  0  0
  -29.6601    1.6496   34.5834 C   0  0  0  0  0  0  0  0  0  0  0  0
  3  4  1  0
  6 13  1  0
  2 14  1  0
 10 15  1  0
  7 16  1  0
 16 17  1  0
 17 18  2  3
 18 19  1  0
  1  2  2  0
  2  3  1  0
  3  8  2  0
  8  7  1  0
  7  6  2  0
  6  1  1  0
  4  5  2  0
  5 11  1  0
 11 12  2  0
 12 10  1  0
 10  9  2  0
  9  4  1  0
M  END

$$$$
