No_75-gen_results/8p0m/2024-11-27-11-27-31/
     RDKit          3D

 34 37  0  0  0  0  0  0  0  0999 V2000
  -28.0162   -0.8135   28.8779 C   0  0  0  0  0  0  0  0  0  0  0  0
  -28.4690   -0.7850   29.8287 C   0  0  0  0  0  0  0  0  0  0  0  0
  -27.0871    0.2903   28.6377 C   0  0  0  0  0  0  0  0  0  0  0  0
  -26.2516    0.4114   27.4223 C   0  0  0  0  0  0  0  0  0  0  0  0
  -28.3913    0.1041   30.9805 C   0  0  0  0  0  0  0  0  0  0  0  0
  -27.5332    1.1666   30.7866 C   0  0  0  0  0  0  0  0  0  0  0  0
  -26.8281    1.2557   29.6454 C   0  0  0  0  0  0  0  0  0  0  0  0
  -25.1383    0.6747   27.2309 C   0  0  0  0  0  0  0  0  0  0  0  0
  -24.3156    0.8665   28.4421 C   0  0  0  0  0  0  0  0  0  0  0  0
  -24.4955    1.5108   29.5561 C   0  0  0  0  0  0  0  0  0  0  0  0
  -25.5259    1.8220   30.0101 C   0  0  0  0  0  0  0  0  0  0  0  0
  -22.7719    0.8104   27.9284 C   0  0  0  0  0  0  0  0  0  0  0  0
  -22.2001    1.8378   27.5208 F   0  0  0  0  0  0  0  0  0  0  0  0
  -22.6344   -0.1819   27.0799 F   0  0  0  0  0  0  0  0  0  0  0  0
  -21.9834    0.2615   29.0828 F   0  0  0  0  0  0  0  0  0  0  0  0
  -27.0192    0.2296   26.3163 F   0  0  0  0  0  0  0  0  0  0  0  0
  -25.6837    3.1989   30.6794 C   0  0  0  0  0  0  0  0  0  0  0  0
  -24.8114    3.9863   30.5862 O   0  0  0  0  0  0  0  0  0  0  0  0
  -26.5091    3.3204   31.6586 O   0  0  0  0  0  0  0  0  0  0  0  0
  -26.0657    3.6295   32.8220 C   0  0  0  0  0  0  0  0  0  0  0  0
  -26.9204    4.4710   33.6990 C   0  0  0  0  0  0  0  0  0  0  0  0
  -27.9333    4.2212   33.7331 C   0  0  0  0  0  0  0  0  0  0  0  0
  -28.9786    5.0421   34.5089 C   0  0  0  0  0  0  0  0  0  0  0  0
  -28.4302    6.1700   35.1780 C   0  0  0  0  0  0  0  0  0  0  0  0
  -27.0952    6.4399   35.1156 C   0  0  0  0  0  0  0  0  0  0  0  0
  -26.2284    5.5903   34.3690 C   0  0  0  0  0  0  0  0  0  0  0  0
  -29.3561    7.0408   35.9827 C   0  0  0  0  0  0  0  0  0  0  0  0
  -30.3995    7.2297   35.7925 C   0  0  0  0  0  0  0  0  0  0  0  0
  -31.2861    8.1187   36.6047 C   0  0  0  0  0  0  0  0  0  0  0  0
  -30.6685    8.7819   37.6804 C   0  0  0  0  0  0  0  0  0  0  0  0
  -29.3345    8.5558   37.9087 C   0  0  0  0  0  0  0  0  0  0  0  0
  -28.6054    7.7261   37.1066 C   0  0  0  0  0  0  0  0  0  0  0  0
  -28.6434    9.2416   39.0262 C   0  0  0  0  0  0  0  0  0  0  0  0
  -27.5500    9.0096   39.3551 N   0  0  0  0  0  0  0  0  0  0  0  0
  3  4  1  0
  4  8  2  0
  8  9  1  0
  9 10  2  0
  7 11  1  0
 10 11  1  0
  9 12  1  0
 12 13  1  0
 12 14  1  0
 12 15  1  0
  4 16  1  0
 11 17  1  0
 17 18  2  0
 17 19  1  0
 19 20  1  0
 20 21  1  0
 24 27  1  0
 31 33  1  0
 33 34  2  0
 27 28  2  0
 28 29  1  0
 29 30  2  0
 30 31  1  0
 31 32  2  0
 32 27  1  0
  1  2  2  0
  2  5  1  0
  5  6  2  0
  6  7  1  0
  7  3  2  0
  3  1  1  0
 21 22  2  0
 22 23  1  0
 23 24  2  0
 24 25  1  0
 25 26  2  0
 26 21  1  0
M  END

$$$$
