No_704-gen_results/8p0m/2024-11-27-11-27-31/
     RDKit          3D

 13 14  0  0  0  0  0  0  0  0999 V2000
  -28.0162   -0.8135   28.8779 C   0  0  0  0  0  0  0  0  0  0  0  0
  -27.0636   -0.1190   28.6079 C   0  0  0  0  0  0  0  0  0  0  0  0
  -25.7923   -0.4302   29.0761 C   0  0  0  0  0  0  0  0  0  0  0  0
  -25.5756   -1.5654   29.9363 C   0  0  0  0  0  0  0  0  0  0  0  0
  -26.7354   -2.3004   30.2173 C   0  0  0  0  0  0  0  0  0  0  0  0
  -27.9184   -1.9537   29.7629 C   0  0  0  0  0  0  0  0  0  0  0  0
  -27.1229    1.0229   27.8500 O   0  0  0  0  0  0  0  0  0  0  0  0
  -26.6157    1.8989   27.6272 C   0  0  0  0  0  0  0  0  0  0  0  0
  -26.3194    2.8754   28.4938 C   0  0  0  0  0  0  0  0  0  0  0  0
  -25.4382    4.0112   28.2420 C   0  0  0  0  0  0  0  0  0  0  0  0
  -24.8119    3.9993   26.9742 C   0  0  0  0  0  0  0  0  0  0  0  0
  -25.8300    2.0898   26.3298 C   0  0  0  0  0  0  0  0  0  0  0  0
  -25.0300    3.1086   26.0464 C   0  0  0  0  0  0  0  0  0  0  0  0
  2  7  1  0
  7  8  1  0
  1  2  2  0
  2  3  1  0
  3  4  2  0
  4  5  1  0
  5  6  2  0
  6  1  1  0
  8  9  2  0
  9 10  1  0
 10 11  2  0
 11 13  1  0
 13 12  2  0
 12  8  1  0
M  END

$$$$
