No_779-gen_results/8p0m/2024-11-27-11-27-31/
     RDKit          3D

 14 15  0  0  0  0  0  0  0  0999 V2000
  -28.0544   -1.0498   28.7246 N   0  0  0  0  0  0  0  0  0  0  0  0
  -27.7460   -0.0733   29.0098 C   0  0  0  0  0  0  0  0  0  0  0  0
  -27.1737    0.7565   28.1070 C   0  0  0  0  0  0  0  0  0  0  0  0
  -27.3702    0.6013   26.8571 C   0  0  0  0  0  0  0  0  0  0  0  0
  -26.2615    0.5988   25.9991 C   0  0  0  0  0  0  0  0  0  0  0  0
  -25.0267    1.2811   26.3329 C   0  0  0  0  0  0  0  0  0  0  0  0
  -24.8959    1.7126   27.6426 C   0  0  0  0  0  0  0  0  0  0  0  0
  -25.9191    1.3519   28.5582 C   0  0  0  0  0  0  0  0  0  0  0  0
  -28.6294   -1.9796   29.7755 C   0  0  0  0  0  0  0  0  0  0  0  0
  -28.7796   -1.4095   30.9466 N   0  0  0  0  0  0  0  0  0  0  0  0
  -27.8996    0.2567   30.4847 C   0  0  0  0  0  0  0  0  0  0  0  0
  -23.6294    2.3298   27.9990 C   0  0  0  0  0  0  0  0  0  0  0  0
  -23.4288    2.5936   29.1517 N   0  0  0  0  0  0  0  0  0  0  0  0
  -22.6016    2.2332   27.2535 O   0  0  0  0  0  0  0  0  0  0  0  0
  1  2  1  0
  2  3  1  0
  1  9  2  0
  9 10  1  0
  2 11  1  0
 10 11  2  0
  7 12  1  0
 12 13  1  0
 12 14  2  0
  3  4  2  0
  4  5  1  0
  5  6  2  0
  6  7  1  0
  7  8  2  0
  8  3  1  0
M  END

$$$$
