No_786-gen_results/8p0m/2024-11-27-11-27-31/
     RDKit          3D

 16 17  0  0  0  0  0  0  0  0999 V2000
  -28.0162   -0.8135   28.8779 C   0  0  0  0  0  0  0  0  0  0  0  0
  -27.0636   -0.1189   28.6079 C   0  0  0  0  0  0  0  0  0  0  0  0
  -25.7923   -0.4302   29.0761 C   0  0  0  0  0  0  0  0  0  0  0  0
  -24.5456    0.3494   28.8225 C   0  0  0  0  0  0  0  0  0  0  0  0
  -24.6586    1.4196   27.8878 C   0  0  0  0  0  0  0  0  0  0  0  0
  -25.9471    1.6811   27.3792 C   0  0  0  0  0  0  0  0  0  0  0  0
  -27.0439    0.9739   27.6871 C   0  0  0  0  0  0  0  0  0  0  0  0
  -28.0018   -1.8582   29.6867 O   0  0  0  0  0  0  0  0  0  0  0  0
  -29.2692   -0.2601   28.8001 N   0  0  0  0  0  0  0  0  0  0  0  0
  -30.4816   -0.8876   29.2469 C   0  0  0  0  0  0  0  0  0  0  0  0
  -23.4608    2.1708   27.6085 C   0  0  0  0  0  0  0  0  0  0  0  0
  -23.5014    3.1382   26.7958 N   0  0  0  0  0  0  0  0  0  0  0  0
  -22.3612    1.9976   28.2525 O   0  0  0  0  0  0  0  0  0  0  0  0
  -31.5829   -0.6269   28.3914 C   0  0  0  0  0  0  0  0  0  0  0  0
  -31.2699   -0.0412   27.3037 C   0  0  0  0  0  0  0  0  0  0  0  0
  -29.8808    0.2656   27.3323 C   0  0  0  0  0  0  0  0  0  0  0  0
  1  2  1  0
  1  8  2  0
  1  9  1  0
  9 10  1  0
  5 11  1  0
 11 12  1  0
 11 13  2  0
 10 14  1  0
 14 15  2  0
  9 16  1  0
 15 16  1  0
  2  3  2  0
  3  4  1  0
  4  5  2  0
  5  6  1  0
  6  7  2  0
  7  2  1  0
M  END

$$$$
