No_739-gen_results/8p0m/2024-11-27-11-27-31/
     RDKit          3D

 15 16  0  0  0  0  0  0  0  0999 V2000
  -28.0162   -0.8135   28.8779 C   0  0  0  0  0  0  0  0  0  0  0  0
  -28.4690   -0.7850   29.8287 C   0  0  0  0  0  0  0  0  0  0  0  0
  -26.5042   -0.7777   28.8766 C   0  0  0  0  0  0  0  0  0  0  0  0
  -25.8103   -0.8531   30.1028 C   0  0  0  0  0  0  0  0  0  0  0  0
  -27.9906   -0.8916   31.2257 C   0  0  0  0  0  0  0  0  0  0  0  0
  -26.6042   -0.8676   31.2652 C   0  0  0  0  0  0  0  0  0  0  0  0
  -24.5534   -0.7870   30.1406 F   0  0  0  0  0  0  0  0  0  0  0  0
  -30.0954   -0.8409   29.8497 C   0  0  0  0  0  0  0  0  0  0  0  0
  -30.5236   -0.4692   28.9258 O   0  0  0  0  0  0  0  0  0  0  0  0
  -30.7453   -1.6940   30.7576 N   0  0  0  0  0  0  0  0  0  0  0  0
  -32.1626   -1.8144   30.6525 C   0  0  0  0  0  0  0  0  0  0  0  0
  -32.7242   -2.5059   31.2540 C   0  0  0  0  0  0  0  0  0  0  0  0
  -32.0742   -3.3078   32.3737 C   0  0  0  0  0  0  0  0  0  0  0  0
  -30.6850   -3.2180   32.5106 C   0  0  0  0  0  0  0  0  0  0  0  0
  -30.0224   -2.4432   31.6890 C   0  0  0  0  0  0  0  0  0  0  0  0
  4  7  1  0
  2  8  1  0
  8  9  2  0
  8 10  1  0
 10 11  1  0
 12 13  1  0
 10 15  1  0
 14 15  1  0
 11 12  1  0
 13 14  1  0
  1  2  2  0
  2  5  1  0
  5  6  2  0
  6  4  1  0
  4  3  2  0
  3  1  1  0
M  END

$$$$
