No_729-gen_results/8p0m/2024-11-27-11-27-31/
     RDKit          3D

 21 22  0  0  0  0  0  0  0  0999 V2000
  -28.0727   -1.2542   28.5316 F   0  0  0  0  0  0  0  0  0  0  0  0
  -27.0607   -0.6291   28.8721 C   0  0  0  0  0  0  0  0  0  0  0  0
  -26.1528   -1.1557   29.4537 C   0  0  0  0  0  0  0  0  0  0  0  0
  -24.8778   -0.5788   29.8639 C   0  0  0  0  0  0  0  0  0  0  0  0
  -24.7426    0.8273   29.4808 C   0  0  0  0  0  0  0  0  0  0  0  0
  -25.7883    1.3927   28.7628 C   0  0  0  0  0  0  0  0  0  0  0  0
  -26.9145    0.7309   28.4427 C   0  0  0  0  0  0  0  0  0  0  0  0
  -23.5403    1.5267   29.8447 C   0  0  0  0  0  0  0  0  0  0  0  0
  -22.4127    1.2112   29.3122 N   0  0  0  0  0  0  0  0  0  0  0  0
  -23.6279    2.4204   30.8055 O   0  0  0  0  0  0  0  0  0  0  0  0
  -22.0588    0.8074   27.9801 C   0  0  0  0  0  0  0  0  0  0  0  0
  -27.8751    1.2993   27.7772 F   0  0  0  0  0  0  0  0  0  0  0  0
  -26.2237   -2.8470   30.0253 Cl  0  0  0  0  0  0  0  0  0  0  0  0
  -20.6291    0.7483   27.9848 C   0  0  0  0  0  0  0  0  0  0  0  0
  -22.8913    1.0323   27.0177 C   0  0  0  0  0  0  0  0  0  0  0  0
  -23.2386    2.0073   26.1246 C   0  0  0  0  0  0  0  0  0  0  0  0
  -24.2187    2.0555   25.1890 C   0  0  0  0  0  0  0  0  0  0  0  0
  -25.0400    0.8181   25.4592 C   0  0  0  0  0  0  0  0  0  0  0  0
  -24.0523    0.1380   26.9149 C   0  0  0  0  0  0  0  0  0  0  0  0
  -26.0611    0.2445   24.9927 C   0  0  0  0  0  0  0  0  0  0  0  0
  -27.2441    0.0865   24.7120 N   0  0  0  0  0  0  0  0  0  0  0  0
  1  2  1  0
  5  8  1  0
  8  9  1  0
  8 10  2  0
  9 11  1  0
  7 12  1  0
  3 13  1  0
 11 14  1  0
 11 15  1  0
 15 16  1  0
 16 17  2  0
 17 18  1  0
 15 19  1  0
 18 19  1  0
 18 20  1  0
 20 21  3  0
  2  3  2  0
  3  4  1  0
  4  5  2  0
  5  6  1  0
  6  7  2  0
  7  2  1  0
M  END

$$$$
