No_796-gen_results/8p0m/2024-11-27-11-27-31/
     RDKit          3D

 17 17  0  0  0  0  0  0  0  0999 V2000
  -28.0162   -0.8135   28.8779 C   0  0  0  0  0  0  0  0  0  0  0  0
  -27.0636   -0.1189   28.6079 C   0  0  0  0  0  0  0  0  0  0  0  0
  -25.7647   -0.3897   29.0360 C   0  0  0  0  0  0  0  0  0  0  0  0
  -24.5516    0.4058   28.7646 C   0  0  0  0  0  0  0  0  0  0  0  0
  -24.6957    1.4480   27.7988 C   0  0  0  0  0  0  0  0  0  0  0  0
  -25.9755    1.7250   27.3077 C   0  0  0  0  0  0  0  0  0  0  0  0
  -27.0718    1.0134   27.6535 C   0  0  0  0  0  0  0  0  0  0  0  0
  -28.6178   -0.4695   30.2207 C   0  0  0  0  0  0  0  0  0  0  0  0
  -28.4023    0.4444   30.7991 F   0  0  0  0  0  0  0  0  0  0  0  0
  -30.0286   -0.8062   30.1991 F   0  0  0  0  0  0  0  0  0  0  0  0
  -23.4989    2.2358   27.5016 C   0  0  0  0  0  0  0  0  0  0  0  0
  -23.6099    3.1718   26.6235 N   0  0  0  0  0  0  0  0  0  0  0  0
  -22.3317    1.9154   27.8874 O   0  0  0  0  0  0  0  0  0  0  0  0
  -28.1532   -1.6286   31.0404 F   0  0  0  0  0  0  0  0  0  0  0  0
  -28.3844    1.2864   27.0488 C   0  0  0  0  0  0  0  0  0  0  0  0
  -28.7668    1.3129   26.0941 Cl  0  0  0  0  0  0  0  0  0  0  0  0
  -29.2594    1.4454   28.2374 O   0  0  0  0  0  0  0  0  0  0  0  0
  1  8  1  0
  8  9  1  0
  8 10  1  0
  5 11  1  0
 11 12  1  0
 11 13  2  0
  8 14  1  0
  7 15  1  0
 15 16  1  0
 15 17  2  0
  1  2  1  0
  2  3  2  0
  3  4  1  0
  4  5  2  0
  5  6  1  0
  6  7  2  0
  7  2  1  0
M  END

$$$$
