No_799-gen_results/8p0m/2024-11-27-11-27-31/
     RDKit          3D

 29 30  0  0  0  0  0  0  0  0999 V2000
  -28.1229   -1.3353   28.4874 O   0  0  0  0  0  0  0  0  0  0  0  0
  -28.5208   -0.4363   29.0779 C   0  0  0  0  0  0  0  0  0  0  0  0
  -27.9150    0.0780   30.0386 O   0  0  0  0  0  0  0  0  0  0  0  0
  -29.8074    0.1885   28.6630 C   0  0  0  0  0  0  0  0  0  0  0  0
  -29.9411    0.2590   27.4396 C   0  0  0  0  0  0  0  0  0  0  0  0
  -29.9354    1.4854   26.6397 C   0  0  0  0  0  0  0  0  0  0  0  0
  -29.2402    2.0190   26.0958 C   0  0  0  0  0  0  0  0  0  0  0  0
  -28.4657    2.6247   25.8198 C   0  0  0  0  0  0  0  0  0  0  0  0
  -27.0870    3.0498   25.6586 C   0  0  0  0  0  0  0  0  0  0  0  0
  -31.4379    1.9380   26.4330 C   0  0  0  0  0  0  0  0  0  0  0  0
  -25.8484    3.0963   26.3179 C   0  0  0  0  0  0  0  0  0  0  0  0
  -25.4739    4.0773   27.0964 C   0  0  0  0  0  0  0  0  0  0  0  0
  -24.1887    3.9475   27.7842 C   0  0  0  0  0  0  0  0  0  0  0  0
  -23.4779    2.7354   27.5967 C   0  0  0  0  0  0  0  0  0  0  0  0
  -23.9943    1.7358   26.7888 C   0  0  0  0  0  0  0  0  0  0  0  0
  -25.1355    1.8943   26.1675 C   0  0  0  0  0  0  0  0  0  0  0  0
  -31.6327    2.9123   25.8533 O   0  0  0  0  0  0  0  0  0  0  0  0
  -32.3436    1.0731   26.6818 O   0  0  0  0  0  0  0  0  0  0  0  0
  -22.3129    2.5604   28.2109 F   0  0  0  0  0  0  0  0  0  0  0  0
  -25.6527    0.8195   25.3109 C   0  0  0  0  0  0  0  0  0  0  0  0
  -26.0644   -0.4291   26.1276 C   0  0  0  0  0  0  0  0  0  0  0  0
  -26.8059    1.1341   24.4690 C   0  0  0  0  0  0  0  0  0  0  0  0
  -24.4734    0.3433   24.4119 C   0  0  0  0  0  0  0  0  0  0  0  0
  -27.0293    2.9374   24.2723 O   0  0  0  0  0  0  0  0  0  0  0  0
  -26.2042    5.3462   27.3446 C   0  0  0  0  0  0  0  0  0  0  0  0
  -27.2782    5.3922   27.7888 O   0  0  0  0  0  0  0  0  0  0  0  0
  -25.6415    6.4646   26.7014 O   0  0  0  0  0  0  0  0  0  0  0  0
  -26.3046    7.6926   26.8620 C   0  0  0  0  0  0  0  0  0  0  0  0
  -26.9882    7.9378   27.9228 C   0  0  0  0  0  0  0  0  0  0  0  0
  1  2  2  0
  2  3  1  0
  2  4  1  0
  4  5  1  0
  5  6  1  0
  6  7  2  3
  7  8  1  0
  8  9  2  3
  6 10  1  0
  9 11  1  0
 10 17  2  0
 10 18  1  0
 14 19  1  0
 16 20  1  0
 20 21  1  0
 20 22  1  0
 20 23  1  0
  9 24  1  0
 22 24  1  0
 12 25  1  0
 25 26  2  0
 25 27  1  0
 27 28  1  0
 28 29  1  0
 11 12  2  0
 12 13  1  0
 13 14  2  0
 14 15  1  0
 15 16  2  0
 16 11  1  0
M  END

$$$$
