No_707-gen_results/8p0m/2024-11-27-11-27-31/
     RDKit          3D

 17 19  0  0  0  0  0  0  0  0999 V2000
  -28.0162   -0.8135   28.8779 C   0  0  0  0  0  0  0  0  0  0  0  0
  -27.0636   -0.1189   28.6079 C   0  0  0  0  0  0  0  0  0  0  0  0
  -26.9716    0.7139   27.5060 C   0  0  0  0  0  0  0  0  0  0  0  0
  -28.1053    0.7744   26.6421 C   0  0  0  0  0  0  0  0  0  0  0  0
  -29.2008    0.1044   27.0527 C   0  0  0  0  0  0  0  0  0  0  0  0
  -29.2096   -0.6029   28.1853 C   0  0  0  0  0  0  0  0  0  0  0  0
  -30.2994    0.2279   26.2571 O   0  0  0  0  0  0  0  0  0  0  0  0
  -25.8773   -0.2917   29.5764 C   0  0  0  0  0  0  0  0  0  0  0  0
  -25.4665   -1.3071   30.0825 N   0  0  0  0  0  0  0  0  0  0  0  0
  -24.3462   -1.4086   30.7782 C   0  0  0  0  0  0  0  0  0  0  0  0
  -23.4478   -0.5145   30.7865 C   0  0  0  0  0  0  0  0  0  0  0  0
  -24.7522    0.6747   29.4859 N   0  0  0  0  0  0  0  0  0  0  0  0
  -23.6660    0.6290   30.1472 C   0  0  0  0  0  0  0  0  0  0  0  0
  -31.4568   -0.1103   26.6300 C   0  0  0  0  0  0  0  0  0  0  0  0
  -30.4568   -1.0658   28.3940 N   0  0  0  0  0  0  0  0  0  0  0  0
  -31.4980   -0.7882   27.8080 C   0  0  0  0  0  0  0  0  0  0  0  0
  -32.4999    0.0450   25.8533 O   0  0  0  0  0  0  0  0  0  0  0  0
  5  7  1  0
  2  8  1  0
  7 14  1  0
  6 15  1  0
 14 16  1  0
 15 16  2  0
 14 17  2  0
  1  2  2  0
  2  3  1  0
  3  4  2  0
  4  5  1  0
  5  6  2  0
  6  1  1  0
  8  9  2  0
  9 10  1  0
 10 11  2  0
 11 13  1  0
 13 12  2  0
 12  8  1  0
M  END

$$$$
