No_783-gen_results/8p0m/2024-11-27-11-27-31/
     RDKit          3D

 16 17  0  0  0  0  0  0  0  0999 V2000
  -28.0162   -0.8135   28.8779 C   0  0  0  0  0  0  0  0  0  0  0  0
  -27.0636   -0.1190   28.6079 C   0  0  0  0  0  0  0  0  0  0  0  0
  -26.9716    0.7139   27.5060 C   0  0  0  0  0  0  0  0  0  0  0  0
  -28.1053    0.7744   26.6421 C   0  0  0  0  0  0  0  0  0  0  0  0
  -29.2008    0.1044   27.0527 C   0  0  0  0  0  0  0  0  0  0  0  0
  -29.2096   -0.6029   28.1853 C   0  0  0  0  0  0  0  0  0  0  0  0
  -30.3702    0.2264   26.1604 C   0  0  0  0  0  0  0  0  0  0  0  0
  -30.3387    0.2161   24.9661 O   0  0  0  0  0  0  0  0  0  0  0  0
  -31.5869    0.1373   26.7395 O   0  0  0  0  0  0  0  0  0  0  0  0
  -25.6040   -0.1110   29.2463 C   0  0  0  0  0  0  0  0  0  0  0  0
  -25.3038    0.5095   29.9980 N   0  0  0  0  0  0  0  0  0  0  0  0
  -24.7658   -1.3126   28.9207 C   0  0  0  0  0  0  0  0  0  0  0  0
  -23.5561   -1.2595   29.5598 C   0  0  0  0  0  0  0  0  0  0  0  0
  -23.1486   -0.3055   29.9913 C   0  0  0  0  0  0  0  0  0  0  0  0
  -24.0134    0.7115   30.4655 C   0  0  0  0  0  0  0  0  0  0  0  0
  -27.9064   -1.6484   29.9595 F   0  0  0  0  0  0  0  0  0  0  0  0
  5  7  1  0
  7  8  2  0
  7  9  1  0
  2 10  1  0
  1 16  1  0
  1  2  2  0
  2  3  1  0
  3  4  2  0
  4  5  1  0
  5  6  2  0
  6  1  1  0
 10 11  2  0
 11 15  1  0
 15 14  2  0
 14 13  1  0
 13 12  2  0
 12 10  1  0
M  END

$$$$
