No_706-gen_results/8p0m/2024-11-27-11-27-31/
     RDKit          3D

 35 38  0  0  0  0  0  0  0  0999 V2000
  -28.0162   -0.8135   28.8779 C   0  0  0  0  0  0  0  0  0  0  0  0
  -28.4690   -0.7850   29.8287 C   0  0  0  0  0  0  0  0  0  0  0  0
  -26.5042   -0.7777   28.8766 C   0  0  0  0  0  0  0  0  0  0  0  0
  -25.8103   -0.8531   30.1028 C   0  0  0  0  0  0  0  0  0  0  0  0
  -27.9906   -0.8916   31.2257 C   0  0  0  0  0  0  0  0  0  0  0  0
  -26.6042   -0.8676   31.2652 C   0  0  0  0  0  0  0  0  0  0  0  0
  -30.2937   -0.8377   29.8355 Cl  0  0  0  0  0  0  0  0  0  0  0  0
  -24.3700   -0.8208   30.1393 C   0  0  0  0  0  0  0  0  0  0  0  0
  -23.7914    0.5375   30.1250 C   0  0  0  0  0  0  0  0  0  0  0  0
  -22.5631    0.6963   29.4364 C   0  0  0  0  0  0  0  0  0  0  0  0
  -21.8309   -0.4850   29.0506 C   0  0  0  0  0  0  0  0  0  0  0  0
  -22.4420   -1.6624   29.0597 N   0  0  0  0  0  0  0  0  0  0  0  0
  -23.6873   -1.8182   29.5147 C   0  0  0  0  0  0  0  0  0  0  0  0
  -24.1346   -3.0449   29.4469 N   0  0  0  0  0  0  0  0  0  0  0  0
  -20.6246   -0.2077   28.5131 N   0  0  0  0  0  0  0  0  0  0  0  0
  -25.7804   -0.7028   27.7077 N   0  0  0  0  0  0  0  0  0  0  0  0
  -26.0289    0.1442   26.6712 C   0  0  0  0  0  0  0  0  0  0  0  0
  -26.7053    1.2691   26.8045 C   0  0  0  0  0  0  0  0  0  0  0  0
  -27.0438    1.8034   28.0135 C   0  0  0  0  0  0  0  0  0  0  0  0
  -27.7250    3.1063   28.1162 C   0  0  0  0  0  0  0  0  0  0  0  0
  -27.9869    3.7067   29.3561 C   0  0  0  0  0  0  0  0  0  0  0  0
  -28.7009    4.8908   29.4762 C   0  0  0  0  0  0  0  0  0  0  0  0
  -29.0872    5.4955   28.2622 C   0  0  0  0  0  0  0  0  0  0  0  0
  -28.8286    4.9634   27.0343 C   0  0  0  0  0  0  0  0  0  0  0  0
  -28.1291    3.7789   26.9590 C   0  0  0  0  0  0  0  0  0  0  0  0
  -25.3493   -0.3795   25.1984 Cl  0  0  0  0  0  0  0  0  0  0  0  0
  -26.8591    2.1347   25.5870 C   0  0  0  0  0  0  0  0  0  0  0  0
  -27.6792    3.2962   25.6983 C   0  0  0  0  0  0  0  0  0  0  0  0
  -27.6491    3.0084   30.6611 C   0  0  0  0  0  0  0  0  0  0  0  0
  -28.6449    2.9176   31.6184 C   0  0  0  0  0  0  0  0  0  0  0  0
  -29.9231    3.1896   31.4774 C   0  0  0  0  0  0  0  0  0  0  0  0
  -30.8061    2.9914   32.5926 C   0  0  0  0  0  0  0  0  0  0  0  0
  -32.1838    3.2360   32.4753 C   0  0  0  0  0  0  0  0  0  0  0  0
  -32.6407    3.7129   31.2308 C   0  0  0  0  0  0  0  0  0  0  0  0
  -31.8544    3.8987   30.1614 C   0  0  0  0  0  0  0  0  0  0  0  0
  2  7  1  0
  4  8  1  0
 13 14  1  0
 11 15  1  0
  3 16  1  0
 16 17  1  0
 17 26  1  0
 21 29  1  0
 29 30  2  3
 30 31  1  0
 31 32  2  3
 32 33  1  0
 33 34  2  3
 34 35  1  0
 17 18  1  0
 18 19  2  0
 19 20  1  0
 25 28  1  0
 28 27  2  0
 27 18  1  0
  8  9  2  0
  9 10  1  0
 10 11  2  0
 11 12  1  0
 12 13  2  0
 13  8  1  0
  1  2  2  0
  2  5  1  0
  5  6  2  0
  6  4  1  0
  4  3  2  0
  3  1  1  0
 20 21  2  0
 21 22  1  0
 22 23  2  0
 23 24  1  0
 24 25  2  0
 25 20  1  0
M  END

$$$$
