No_702-gen_results/8p0m/2024-11-27-11-27-31/
     RDKit          3D

 11 12  0  0  0  0  0  0  0  0999 V2000
  -28.0162   -0.8135   28.8779 C   0  0  0  0  0  0  0  0  0  0  0  0
  -28.4690   -0.7850   29.8287 C   0  0  0  0  0  0  0  0  0  0  0  0
  -27.0871    0.2903   28.6377 C   0  0  0  0  0  0  0  0  0  0  0  0
  -26.2516    0.4114   27.4223 C   0  0  0  0  0  0  0  0  0  0  0  0
  -28.3141   -0.1267   30.7102 C   0  0  0  0  0  0  0  0  0  0  0  0
  -29.0781   -0.2283   32.0938 C   0  0  0  0  0  0  0  0  0  0  0  0
  -25.2750    1.4289   27.4051 C   0  0  0  0  0  0  0  0  0  0  0  0
  -25.0629    2.2069   28.5381 C   0  0  0  0  0  0  0  0  0  0  0  0
  -25.7657    2.0303   29.6593 C   0  0  0  0  0  0  0  0  0  0  0  0
  -26.6626    1.0744   29.7434 C   0  0  0  0  0  0  0  0  0  0  0  0
  -27.4231    0.8604   30.9089 C   0  0  0  0  0  0  0  0  0  0  0  0
  5  6  1  0
  3  4  2  0
  4  7  1  0
  7  8  2  0
  8  9  1  0
  9 10  2  0
  1  2  2  0
  2  5  1  0
  5 11  2  0
 11 10  1  0
 10  3  1  0
  3  1  1  0
M  END

$$$$
