No_817-gen_results/8p0m/2024-11-27-11-27-31/
     RDKit          3D

 12 13  0  0  0  0  0  0  0  0999 V2000
  -28.0162   -0.8135   28.8779 C   0  0  0  0  0  0  0  0  0  0  0  0
  -28.4690   -0.7850   29.8287 C   0  0  0  0  0  0  0  0  0  0  0  0
  -27.1356    0.2359   28.5352 C   0  0  0  0  0  0  0  0  0  0  0  0
  -26.8745    1.2825   29.3982 C   0  0  0  0  0  0  0  0  0  0  0  0
  -28.3613    0.1987   30.9244 C   0  0  0  0  0  0  0  0  0  0  0  0
  -27.5277    1.2234   30.6356 C   0  0  0  0  0  0  0  0  0  0  0  0
  -26.4181    0.0763   27.2578 C   0  0  0  0  0  0  0  0  0  0  0  0
  -25.0141    0.0394   27.3317 C   0  0  0  0  0  0  0  0  0  0  0  0
  -27.0064    0.2951   26.0062 C   0  0  0  0  0  0  0  0  0  0  0  0
  -26.2879    0.1993   24.8537 C   0  0  0  0  0  0  0  0  0  0  0  0
  -24.2405    0.0884   26.1547 C   0  0  0  0  0  0  0  0  0  0  0  0
  -24.9124    0.1664   24.9076 C   0  0  0  0  0  0  0  0  0  0  0  0
  3  7  1  0
  7  8  2  0
  8 11  1  0
 11 12  2  0
 12 10  1  0
 10  9  2  0
  9  7  1  0
  1  2  2  0
  2  5  1  0
  5  6  2  0
  6  4  1  0
  4  3  2  0
  3  1  1  0
M  END

$$$$
