No_850-gen_results/8p0m/2024-11-27-11-27-31/
     RDKit          3D

 21 22  0  0  0  0  0  0  0  0999 V2000
  -28.0162   -0.8135   28.8779 C   0  0  0  0  0  0  0  0  0  0  0  0
  -28.4690   -0.7850   29.8287 C   0  0  0  0  0  0  0  0  0  0  0  0
  -26.5042   -0.7777   28.8766 C   0  0  0  0  0  0  0  0  0  0  0  0
  -25.8103   -0.8531   30.1028 C   0  0  0  0  0  0  0  0  0  0  0  0
  -27.9906   -0.8916   31.2257 C   0  0  0  0  0  0  0  0  0  0  0  0
  -26.6042   -0.8676   31.2652 C   0  0  0  0  0  0  0  0  0  0  0  0
  -29.9203   -0.8331   29.8239 F   0  0  0  0  0  0  0  0  0  0  0  0
  -24.1370   -0.7883   30.1500 Cl  0  0  0  0  0  0  0  0  0  0  0  0
  -25.7196   -0.7658   27.7850 F   0  0  0  0  0  0  0  0  0  0  0  0
  -28.9034   -0.9101   32.6687 S   0  0  0  0  0  0  0  0  0  0  0  0
  -29.0693   -2.2622   32.9936 O   0  0  0  0  0  0  0  0  0  0  0  0
  -28.0468   -0.1610   33.7419 N   0  0  0  0  0  0  0  0  0  0  0  0
  -30.0794   -0.1533   32.4182 O   0  0  0  0  0  0  0  0  0  0  0  0
  -27.4776   -0.7910   34.8108 C   0  0  0  0  0  0  0  0  0  0  0  0
  -28.6219    1.1016   34.1373 C   0  0  0  0  0  0  0  0  0  0  0  0
  -28.0642    2.1644   33.6802 C   0  0  0  0  0  0  0  0  0  0  0  0
  -28.6109    3.3802   33.7012 C   0  0  0  0  0  0  0  0  0  0  0  0
  -28.0443    4.5469   33.0483 C   0  0  0  0  0  0  0  0  0  0  0  0
  -26.7877    4.4674   32.4211 C   0  0  0  0  0  0  0  0  0  0  0  0
  -26.1302    3.2125   32.4389 C   0  0  0  0  0  0  0  0  0  0  0  0
  -26.7392    2.1236   33.0174 C   0  0  0  0  0  0  0  0  0  0  0  0
  2  7  1  0
  4  8  1  0
  3  9  1  0
  5 10  1  0
 10 11  2  0
 10 12  1  0
 10 13  2  0
 12 14  1  0
 12 15  1  0
 15 16  1  0
  1  2  2  0
  2  5  1  0
  5  6  2  0
  6  4  1  0
  4  3  2  0
  3  1  1  0
 16 17  2  0
 17 18  1  0
 18 19  2  0
 19 20  1  0
 20 21  2  0
 21 16  1  0
M  END

$$$$
