No_871-gen_results/8p0m/2024-11-27-11-27-31/
     RDKit          3D

 18 20  0  0  0  0  0  0  0  0999 V2000
  -28.0162   -0.8135   28.8779 C   0  0  0  0  0  0  0  0  0  0  0  0
  -27.0636   -0.1190   28.6079 C   0  0  0  0  0  0  0  0  0  0  0  0
  -25.7923   -0.4302   29.0761 C   0  0  0  0  0  0  0  0  0  0  0  0
  -25.5756   -1.5654   29.9363 C   0  0  0  0  0  0  0  0  0  0  0  0
  -26.7354   -2.3004   30.2173 C   0  0  0  0  0  0  0  0  0  0  0  0
  -27.9184   -1.9537   29.7629 C   0  0  0  0  0  0  0  0  0  0  0  0
  -27.1057    1.1023   27.7593 C   0  0  0  0  0  0  0  0  0  0  0  0
  -27.8576    1.5309   27.2156 C   0  0  0  0  0  0  0  0  0  0  0  0
  -27.8299    2.6705   26.2936 C   0  0  0  0  0  0  0  0  0  0  0  0
  -26.5899    3.3104   26.0934 C   0  0  0  0  0  0  0  0  0  0  0  0
  -25.4689    2.7905   26.7306 C   0  0  0  0  0  0  0  0  0  0  0  0
  -25.6127    1.7390   27.5551 C   0  0  0  0  0  0  0  0  0  0  0  0
  -24.4415    1.2249   28.1662 C   0  0  0  0  0  0  0  0  0  0  0  0
  -24.5501    0.2127   28.8572 C   0  0  0  0  0  0  0  0  0  0  0  0
  -23.1745    1.9799   27.8950 C   0  0  0  0  0  0  0  0  0  0  0  0
  -23.0817    2.6720   26.9707 F   0  0  0  0  0  0  0  0  0  0  0  0
  -22.8335    2.7192   29.0190 F   0  0  0  0  0  0  0  0  0  0  0  0
  -22.1242    1.0775   28.0020 F   0  0  0  0  0  0  0  0  0  0  0  0
  2  7  1  0
 12 13  1  0
  3 14  1  0
 13 14  1  0
 13 15  1  0
 15 16  1  0
 15 17  1  0
 15 18  1  0
  1  2  2  0
  2  3  1  0
  3  4  2  0
  4  5  1  0
  5  6  2  0
  6  1  1  0
  7  8  2  0
  8  9  1  0
  9 10  2  0
 10 11  1  0
 11 12  2  0
 12  7  1  0
M  END

$$$$
