No_843-gen_results/8p0m/2024-11-27-11-27-31/
     RDKit          3D

 13 13  0  0  0  0  0  0  0  0999 V2000
  -28.0162   -0.8135   28.8779 C   0  0  0  0  0  0  0  0  0  0  0  0
  -27.0636   -0.1189   28.6079 C   0  0  0  0  0  0  0  0  0  0  0  0
  -25.7923   -0.4302   29.0761 C   0  0  0  0  0  0  0  0  0  0  0  0
  -24.5456    0.3494   28.8225 C   0  0  0  0  0  0  0  0  0  0  0  0
  -24.6586    1.4196   27.8878 C   0  0  0  0  0  0  0  0  0  0  0  0
  -25.9471    1.6811   27.3792 C   0  0  0  0  0  0  0  0  0  0  0  0
  -27.0439    0.9739   27.6871 C   0  0  0  0  0  0  0  0  0  0  0  0
  -27.9170   -2.0334   29.1421 F   0  0  0  0  0  0  0  0  0  0  0  0
  -28.9823   -0.7243   27.9004 F   0  0  0  0  0  0  0  0  0  0  0  0
  -28.6145   -0.2571   30.0261 F   0  0  0  0  0  0  0  0  0  0  0  0
  -23.4608    2.1805   27.6471 C   0  0  0  0  0  0  0  0  0  0  0  0
  -23.5014    3.2168   27.0570 O   0  0  0  0  0  0  0  0  0  0  0  0
  -22.2524    1.7713   28.0822 O   0  0  0  0  0  0  0  0  0  0  0  0
  1  2  1  0
  1  8  1  0
  1  9  1  0
  1 10  1  0
  5 11  1  0
 11 12  2  0
 11 13  1  0
  2  3  2  0
  3  4  1  0
  4  5  2  0
  5  6  1  0
  6  7  2  0
  7  2  1  0
M  END

$$$$
