No_802-gen_results/8p0m/2024-11-27-11-27-31/
     RDKit          3D

 14 15  0  0  0  0  0  0  0  0999 V2000
  -28.0162   -0.8135   28.8779 C   0  0  0  0  0  0  0  0  0  0  0  0
  -28.4690   -0.7850   29.8287 C   0  0  0  0  0  0  0  0  0  0  0  0
  -26.5042   -0.7777   28.8766 C   0  0  0  0  0  0  0  0  0  0  0  0
  -25.8103   -0.8531   30.1028 C   0  0  0  0  0  0  0  0  0  0  0  0
  -27.9906   -0.8916   31.2257 C   0  0  0  0  0  0  0  0  0  0  0  0
  -26.6042   -0.8676   31.2652 C   0  0  0  0  0  0  0  0  0  0  0  0
  -29.9042   -0.8858   29.9893 O   0  0  0  0  0  0  0  0  0  0  0  0
  -30.5809   -0.1618   29.0933 C   0  0  0  0  0  0  0  0  0  0  0  0
  -31.6268   -0.8726   28.5555 C   0  0  0  0  0  0  0  0  0  0  0  0
  -32.0003   -0.6150   27.1985 C   0  0  0  0  0  0  0  0  0  0  0  0
  -31.4945    0.5555   26.5562 C   0  0  0  0  0  0  0  0  0  0  0  0
  -30.4853    1.2575   27.1684 C   0  0  0  0  0  0  0  0  0  0  0  0
  -29.9483    0.8077   28.3865 C   0  0  0  0  0  0  0  0  0  0  0  0
  -25.7345   -0.7639   27.7710 F   0  0  0  0  0  0  0  0  0  0  0  0
  2  7  1  0
  7  8  1  0
  3 14  1  0
  8  9  2  0
  9 10  1  0
 10 11  2  0
 11 12  1  0
 12 13  2  0
 13  8  1  0
  1  2  2  0
  2  5  1  0
  5  6  2  0
  6  4  1  0
  4  3  2  0
  3  1  1  0
M  END

$$$$
