No_834-gen_results/8p0m/2024-11-27-11-27-31/
     RDKit          3D

 21 23  0  0  0  0  0  0  0  0999 V2000
  -28.0162   -0.8135   28.8779 C   0  0  0  0  0  0  0  0  0  0  0  0
  -28.4690   -0.7850   29.8287 C   0  0  0  0  0  0  0  0  0  0  0  0
  -27.0871    0.2903   28.6377 C   0  0  0  0  0  0  0  0  0  0  0  0
  -26.8317    1.2487   29.5869 C   0  0  0  0  0  0  0  0  0  0  0  0
  -28.3914    0.0801   31.0065 C   0  0  0  0  0  0  0  0  0  0  0  0
  -27.4940    1.1521   30.7841 C   0  0  0  0  0  0  0  0  0  0  0  0
  -26.3172    0.3994   27.3653 C   0  0  0  0  0  0  0  0  0  0  0  0
  -26.8815    0.9711   26.3721 C   0  0  0  0  0  0  0  0  0  0  0  0
  -25.0088   -0.0567   27.3826 C   0  0  0  0  0  0  0  0  0  0  0  0
  -28.1703    1.4323   26.2851 C   0  0  0  0  0  0  0  0  0  0  0  0
  -28.7118    1.8207   25.0621 C   0  0  0  0  0  0  0  0  0  0  0  0
  -27.9853    1.4683   23.9045 C   0  0  0  0  0  0  0  0  0  0  0  0
  -26.1847    0.6971   25.1060 C   0  0  0  0  0  0  0  0  0  0  0  0
  -26.7629    0.9643   23.8902 C   0  0  0  0  0  0  0  0  0  0  0  0
  -24.1300    0.4661   28.4765 C   0  0  0  0  0  0  0  0  0  0  0  0
  -23.4391    1.5825   28.2445 C   0  0  0  0  0  0  0  0  0  0  0  0
  -22.3694    1.9741   29.2689 C   0  0  0  0  0  0  0  0  0  0  0  0
  -23.9052   -0.2972   29.6689 C   0  0  0  0  0  0  0  0  0  0  0  0
  -23.0208    0.1013   30.6723 C   0  0  0  0  0  0  0  0  0  0  0  0
  -22.2640    1.2847   30.4417 C   0  0  0  0  0  0  0  0  0  0  0  0
  -23.4871    2.3629   27.0157 C   0  0  0  0  0  0  0  0  0  0  0  0
  3  7  1  0
  7  8  1  0
  7  9  1  0
  9 15  1  0
 16 21  1  0
 15 16  2  0
 16 17  1  0
 17 20  2  0
 20 19  1  0
 19 18  2  0
 18 15  1  0
  8 10  2  0
 10 11  1  0
 11 12  2  0
 12 14  1  0
 14 13  2  0
 13  8  1  0
  1  2  2  0
  2  5  1  0
  5  6  2  0
  6  4  1  0
  4  3  2  0
  3  1  1  0
M  END

$$$$
