No_828-gen_results/8p0m/2024-11-27-11-27-31/
     RDKit          3D

 18 19  0  0  0  0  0  0  0  0999 V2000
  -28.0162   -0.8135   28.8779 C   0  0  0  0  0  0  0  0  0  0  0  0
  -27.0636   -0.1190   28.6079 C   0  0  0  0  0  0  0  0  0  0  0  0
  -26.9716    0.7139   27.5060 C   0  0  0  0  0  0  0  0  0  0  0  0
  -28.1053    0.7744   26.6421 C   0  0  0  0  0  0  0  0  0  0  0  0
  -29.2041    0.1179   27.0477 C   0  0  0  0  0  0  0  0  0  0  0  0
  -29.2127   -0.6088   28.1281 C   0  0  0  0  0  0  0  0  0  0  0  0
  -25.7106    1.4518   27.1380 C   0  0  0  0  0  0  0  0  0  0  0  0
  -24.6052    0.9253   27.6902 C   0  0  0  0  0  0  0  0  0  0  0  0
  -23.3087    1.6018   27.4923 C   0  0  0  0  0  0  0  0  0  0  0  0
  -23.2169    2.4959   26.4391 C   0  0  0  0  0  0  0  0  0  0  0  0
  -25.2940    2.1630   26.0166 C   0  0  0  0  0  0  0  0  0  0  0  0
  -24.2459    2.8667   25.7470 C   0  0  0  0  0  0  0  0  0  0  0  0
  -22.1211    1.1339   28.2986 C   0  0  0  0  0  0  0  0  0  0  0  0
  -22.1701    0.1202   29.1177 N   0  0  0  0  0  0  0  0  0  0  0  0
  -20.9980    1.6937   28.0817 O   0  0  0  0  0  0  0  0  0  0  0  0
  -30.4132    0.2245   26.1843 C   0  0  0  0  0  0  0  0  0  0  0  0
  -31.1895    1.1864   26.3920 O   0  0  0  0  0  0  0  0  0  0  0  0
  -30.6292   -0.6806   25.2933 O   0  0  0  0  0  0  0  0  0  0  0  0
  3  7  1  0
  9 13  1  0
 13 14  1  0
 13 15  2  0
  5 16  1  0
 16 17  2  0
 16 18  1  0
  7  8  2  0
  8  9  1  0
  9 10  2  0
 10 12  1  0
 12 11  2  0
 11  7  1  0
  1  2  2  0
  2  3  1  0
  3  4  2  0
  4  5  1  0
  5  6  2  0
  6  1  1  0
M  END

$$$$
