No_880-gen_results/8p0m/2024-11-27-11-27-31/
     RDKit          3D

  7  7  0  0  0  0  0  0  0  0999 V2000
  -28.0544   -1.0498   28.7246 N   0  0  0  0  0  0  0  0  0  0  0  0
  -28.6544   -0.5669   29.5076 C   0  0  0  0  0  0  0  0  0  0  0  0
  -26.7777   -0.5807   28.6029 C   0  0  0  0  0  0  0  0  0  0  0  0
  -26.2700    0.0398   29.5434 C   0  0  0  0  0  0  0  0  0  0  0  0
  -30.0683   -1.0431   29.6634 N   0  0  0  0  0  0  0  0  0  0  0  0
  -28.3125    0.1707   30.5759 N   0  0  0  0  0  0  0  0  0  0  0  0
  -27.0364    0.5838   30.5941 C   0  0  0  0  0  0  0  0  0  0  0  0
  2  5  1  0
  1  2  2  0
  2  6  1  0
  6  7  2  0
  7  4  1  0
  4  3  2  0
  3  1  1  0
M  END

$$$$
