No_890-gen_results/8p0m/2024-11-27-11-27-31/
     RDKit          3D

 24 26  0  0  0  0  0  0  0  0999 V2000
  -28.0162   -0.8135   28.8779 C   0  0  0  0  0  0  0  0  0  0  0  0
  -27.0636   -0.1190   28.6079 C   0  0  0  0  0  0  0  0  0  0  0  0
  -27.0010    0.6913   27.4910 C   0  0  0  0  0  0  0  0  0  0  0  0
  -28.1420    0.8282   26.7994 C   0  0  0  0  0  0  0  0  0  0  0  0
  -29.2898   -0.4871   28.3661 C   0  0  0  0  0  0  0  0  0  0  0  0
  -29.2758    0.2610   27.2450 C   0  0  0  0  0  0  0  0  0  0  0  0
  -30.4290    0.4812   26.5483 O   0  0  0  0  0  0  0  0  0  0  0  0
  -25.6598   -0.3713   29.3040 C   0  0  0  0  0  0  0  0  0  0  0  0
  -25.1098    0.5910   29.9974 C   0  0  0  0  0  0  0  0  0  0  0  0
  -23.9082    1.2235   29.7338 C   0  0  0  0  0  0  0  0  0  0  0  0
  -23.0716    0.7606   28.6928 C   0  0  0  0  0  0  0  0  0  0  0  0
  -21.8740    1.3952   28.3586 C   0  0  0  0  0  0  0  0  0  0  0  0
  -24.5260   -0.7315   28.2855 C   0  0  0  0  0  0  0  0  0  0  0  0
  -23.5066   -0.3326   27.9782 C   0  0  0  0  0  0  0  0  0  0  0  0
  -25.7456   -1.5709   30.3021 C   0  0  0  0  0  0  0  0  0  0  0  0
  -25.9081    1.2286   31.1626 C   0  0  0  0  0  0  0  0  0  0  0  0
  -25.8643    0.6257   32.3105 C   0  0  0  0  0  0  0  0  0  0  0  0
  -26.1898    2.6396   31.0548 C   0  0  0  0  0  0  0  0  0  0  0  0
  -27.0425    3.1788   31.9910 C   0  0  0  0  0  0  0  0  0  0  0  0
  -26.6156    1.2582   33.4217 C   0  0  0  0  0  0  0  0  0  0  0  0
  -27.0927    2.5662   33.2740 C   0  0  0  0  0  0  0  0  0  0  0  0
  -31.5135    0.8902   27.1070 C   0  0  0  0  0  0  0  0  0  0  0  0
  -32.5038    0.3594   26.9363 C   0  0  0  0  0  0  0  0  0  0  0  0
  -33.7879    0.6713   27.5582 C   0  0  0  0  0  0  0  0  0  0  0  0
  6  7  1  0
  2  8  1  0
  8  9  1  0
 10 11  1  0
 11 12  1  0
  8 13  1  0
 11 14  1  0
  8 15  1  0
  9 16  1  0
  7 22  1  0
 22 23  2  3
 23 24  1  0
  9 10  1  0
 14 13  1  0
 16 17  2  0
 17 20  1  0
 20 21  2  0
 21 19  1  0
 19 18  2  0
 18 16  1  0
  1  2  2  0
  2  3  1  0
  3  4  2  0
  4  6  1  0
  6  5  2  0
  5  1  1  0
M  END

$$$$
