No_805-gen_results/8p0m/2024-11-27-11-27-31/
     RDKit          3D

 27 29  0  0  0  0  0  0  0  0999 V2000
  -28.0162   -0.8135   28.8779 C   0  0  0  0  0  0  0  0  0  0  0  0
  -28.4690   -0.7850   29.8287 C   0  0  0  0  0  0  0  0  0  0  0  0
  -26.5042   -0.7777   28.8766 C   0  0  0  0  0  0  0  0  0  0  0  0
  -25.8103   -0.8531   30.1028 C   0  0  0  0  0  0  0  0  0  0  0  0
  -27.9906   -0.8916   31.2257 C   0  0  0  0  0  0  0  0  0  0  0  0
  -26.6042   -0.8676   31.2652 C   0  0  0  0  0  0  0  0  0  0  0  0
  -30.0739   -0.8360   29.8615 C   0  0  0  0  0  0  0  0  0  0  0  0
  -30.6891   -1.6554   30.2229 O   0  0  0  0  0  0  0  0  0  0  0  0
  -30.5868    0.0940   28.8678 N   0  0  0  0  0  0  0  0  0  0  0  0
  -31.9585    0.0495   28.5916 C   0  0  0  0  0  0  0  0  0  0  0  0
  -32.3543    1.1414   28.2285 C   0  0  0  0  0  0  0  0  0  0  0  0
  -31.5425    2.0453   27.5967 C   0  0  0  0  0  0  0  0  0  0  0  0
  -30.1325    2.0117   27.7767 C   0  0  0  0  0  0  0  0  0  0  0  0
  -29.7106    1.1003   28.5108 C   0  0  0  0  0  0  0  0  0  0  0  0
  -25.6802   -0.6756   27.6482 C   0  0  0  0  0  0  0  0  0  0  0  0
  -25.8736    0.3639   26.7222 C   0  0  0  0  0  0  0  0  0  0  0  0
  -25.0560    0.5125   25.6632 C   0  0  0  0  0  0  0  0  0  0  0  0
  -24.1386    1.3565   25.2950 C   0  0  0  0  0  0  0  0  0  0  0  0
  -24.0848    2.5475   26.2238 C   0  0  0  0  0  0  0  0  0  0  0  0
  -25.0190    2.6458   27.2836 C   0  0  0  0  0  0  0  0  0  0  0  0
  -25.9410    1.7120   27.3281 C   0  0  0  0  0  0  0  0  0  0  0  0
  -29.3082    3.1392   27.2470 C   0  0  0  0  0  0  0  0  0  0  0  0
  -28.6865    4.0958   27.8927 N   0  0  0  0  0  0  0  0  0  0  0  0
  -28.7206    2.9267   26.0401 O   0  0  0  0  0  0  0  0  0  0  0  0
  -28.1483    5.1257   27.6746 C   0  0  0  0  0  0  0  0  0  0  0  0
  -28.7066    6.3414   28.1022 C   0  0  0  0  0  0  0  0  0  0  0  0
  -28.1142    7.5789   27.7174 C   0  0  0  0  0  0  0  0  0  0  0  0
  2  7  1  0
  7  8  2  0
  7  9  1  0
  9 10  1  0
 10 11  1  0
 12 13  1  0
  9 14  1  0
 13 14  1  0
  3 15  1  0
 15 16  1  0
 13 22  1  0
 22 23  1  0
 22 24  2  0
 23 25  1  0
 25 26  2  3
 26 27  1  0
 11 12  1  0
  1  2  2  0
  2  5  1  0
  5  6  2  0
  6  4  1  0
  4  3  2  0
  3  1  1  0
 16 17  2  0
 17 18  1  0
 18 19  2  0
 19 20  1  0
 20 21  2  0
 21 16  1  0
M  END

$$$$
