No_836-gen_results/8p0m/2024-11-27-11-27-31/
     RDKit          3D

 14 16  0  0  0  0  0  0  0  0999 V2000
  -28.0162   -0.8135   28.8779 C   0  0  0  0  0  0  0  0  0  0  0  0
  -27.0636   -0.1189   28.6079 C   0  0  0  0  0  0  0  0  0  0  0  0
  -25.7923   -0.4302   29.0761 C   0  0  0  0  0  0  0  0  0  0  0  0
  -25.5756   -1.5654   29.9363 C   0  0  0  0  0  0  0  0  0  0  0  0
  -26.7354   -2.3004   30.2173 C   0  0  0  0  0  0  0  0  0  0  0  0
  -27.9184   -1.9537   29.7629 C   0  0  0  0  0  0  0  0  0  0  0  0
  -27.3243    1.0850   27.8190 C   0  0  0  0  0  0  0  0  0  0  0  0
  -26.2674    1.9087   27.5697 C   0  0  0  0  0  0  0  0  0  0  0  0
  -24.8868    1.5477   28.0393 C   0  0  0  0  0  0  0  0  0  0  0  0
  -24.6633    0.4445   28.8042 C   0  0  0  0  0  0  0  0  0  0  0  0
  -23.2951    0.1642   29.2504 C   0  0  0  0  0  0  0  0  0  0  0  0
  -22.2200    0.5202   28.5186 C   0  0  0  0  0  0  0  0  0  0  0  0
  -22.3727    1.6445   27.6181 C   0  0  0  0  0  0  0  0  0  0  0  0
  -23.7065    2.2445   27.3843 C   0  0  0  0  0  0  0  0  0  0  0  0
  1  2  2  0
  3  4  2  0
  4  5  1  0
  5  6  2  0
  6  1  1  0
  2  3  1  0
  3 10  1  0
  9  8  1  0
  8  7  2  0
  7  2  1  0
  9 10  2  0
 10 11  1  0
 11 12  2  0
 12 13  1  0
 13 14  2  0
 14  9  1  0
M  END

$$$$
