No_853-gen_results/8p0m/2024-11-27-11-27-31/
     RDKit          3D

 14 15  0  0  0  0  0  0  0  0999 V2000
  -28.0162   -0.8135   28.8779 C   0  0  0  0  0  0  0  0  0  0  0  0
  -28.4690   -0.7850   29.8287 C   0  0  0  0  0  0  0  0  0  0  0  0
  -26.5455   -0.8762   28.8500 C   0  0  0  0  0  0  0  0  0  0  0  0
  -25.8041   -1.0324   30.0571 C   0  0  0  0  0  0  0  0  0  0  0  0
  -27.9437   -0.9869   31.2075 C   0  0  0  0  0  0  0  0  0  0  0  0
  -26.5825   -1.0386   31.2231 C   0  0  0  0  0  0  0  0  0  0  0  0
  -30.0606   -0.7371   29.9024 C   0  0  0  0  0  0  0  0  0  0  0  0
  -30.6056   -0.0348   29.0093 N   0  0  0  0  0  0  0  0  0  0  0  0
  -31.7125   -0.3118   28.3887 C   0  0  0  0  0  0  0  0  0  0  0  0
  -32.1602    0.4332   27.2501 C   0  0  0  0  0  0  0  0  0  0  0  0
  -32.4415   -1.4221   28.6973 N   0  0  0  0  0  0  0  0  0  0  0  0
  -31.4901    1.5608   26.8007 C   0  0  0  0  0  0  0  0  0  0  0  0
  -30.2668    1.8729   27.5270 C   0  0  0  0  0  0  0  0  0  0  0  0
  -29.7125    1.1365   28.6080 C   0  0  0  0  0  0  0  0  0  0  0  0
  2  7  1  0
  7  8  1  0
  8  9  1  0
  9 11  1  0
 10 12  1  0
  8 14  1  0
 13 14  1  0
  9 10  1  0
 12 13  1  0
  1  2  2  0
  2  5  1  0
  5  6  2  0
  6  4  1  0
  4  3  2  0
  3  1  1  0
M  END

$$$$
