No_846-gen_results/8p0m/2024-11-27-11-27-31/
     RDKit          3D

 12 12  0  0  0  0  0  0  0  0999 V2000
  -28.1229   -1.3353   28.4874 O   0  0  0  0  0  0  0  0  0  0  0  0
  -27.4806   -0.4044   28.7094 C   0  0  0  0  0  0  0  0  0  0  0  0
  -27.2412    0.3910   29.5098 N   0  0  0  0  0  0  0  0  0  0  0  0
  -26.2388   -0.3380   27.6778 C   0  0  0  0  0  0  0  0  0  0  0  0
  -25.3093    0.6912   27.7522 C   0  0  0  0  0  0  0  0  0  0  0  0
  -25.3619    1.5421   28.8283 C   0  0  0  0  0  0  0  0  0  0  0  0
  -26.3549    1.4061   29.7468 C   0  0  0  0  0  0  0  0  0  0  0  0
  -24.0717    0.8359   26.6147 Cl  0  0  0  0  0  0  0  0  0  0  0  0
  -26.3848    2.3495   30.8686 C   0  0  0  0  0  0  0  0  0  0  0  0
  -27.3511    2.9646   30.9018 F   0  0  0  0  0  0  0  0  0  0  0  0
  -26.2281    1.5739   32.0349 F   0  0  0  0  0  0  0  0  0  0  0  0
  -25.2535    3.1010   30.8645 F   0  0  0  0  0  0  0  0  0  0  0  0
  1  2  2  0
  2  3  1  0
  2  4  1  0
  5  6  1  0
  6  7  1  0
  5  8  1  0
  7  9  1  0
  9 10  1  0
  9 11  1  0
  9 12  1  0
  3  7  1  0
  5  4  1  0
M  END

$$$$
