No_829-gen_results/8p0m/2024-11-27-11-27-31/
     RDKit          3D

 16 17  0  0  0  0  0  0  0  0999 V2000
  -28.0162   -0.8135   28.8779 C   0  0  0  0  0  0  0  0  0  0  0  0
  -28.4690   -0.7850   29.8287 C   0  0  0  0  0  0  0  0  0  0  0  0
  -26.5455   -0.8762   28.8500 C   0  0  0  0  0  0  0  0  0  0  0  0
  -25.8041   -1.0324   30.0571 C   0  0  0  0  0  0  0  0  0  0  0  0
  -26.5373   -1.0386   31.2171 C   0  0  0  0  0  0  0  0  0  0  0  0
  -27.8843   -0.9532   31.1862 C   0  0  0  0  0  0  0  0  0  0  0  0
  -24.3655   -1.1134   30.0483 C   0  0  0  0  0  0  0  0  0  0  0  0
  -23.6925    0.1188   29.9185 C   0  0  0  0  0  0  0  0  0  0  0  0
  -23.1776    0.5817   28.7884 C   0  0  0  0  0  0  0  0  0  0  0  0
  -23.6021    1.3720   27.8808 C   0  0  0  0  0  0  0  0  0  0  0  0
  -22.9160    1.6709   26.6617 C   0  0  0  0  0  0  0  0  0  0  0  0
  -24.8278    2.1296   28.1121 C   0  0  0  0  0  0  0  0  0  0  0  0
  -25.3109    3.1022   27.1803 C   0  0  0  0  0  0  0  0  0  0  0  0
  -23.4242    2.6315   25.7366 C   0  0  0  0  0  0  0  0  0  0  0  0
  -24.5515    3.3785   26.0650 C   0  0  0  0  0  0  0  0  0  0  0  0
  -25.6243   -0.8459   27.3988 Cl  0  0  0  0  0  0  0  0  0  0  0  0
  4  7  1  0
  7  8  1  0
  8  9  1  0
  3 16  1  0
  9 10  1  0
  1  2  2  0
  2  6  1  0
  6  5  2  0
  5  4  1  0
  4  3  2  0
  3  1  1  0
 10 11  2  0
 11 14  1  0
 14 15  2  0
 15 13  1  0
 13 12  2  0
 12 10  1  0
M  END

$$$$
