No_852-gen_results/8p0m/2024-11-27-11-27-31/
     RDKit          3D

 11 11  0  0  0  0  0  0  0  0999 V2000
  -28.1493   -0.8198   28.9079 Cl  0  0  0  0  0  0  0  0  0  0  0  0
  -26.9116   -0.0797   28.9452 C   0  0  0  0  0  0  0  0  0  0  0  0
  -26.0490   -0.0718   27.8591 C   0  0  0  0  0  0  0  0  0  0  0  0
  -24.7194    0.4034   27.9174 C   0  0  0  0  0  0  0  0  0  0  0  0
  -24.2099    0.9302   29.0839 C   0  0  0  0  0  0  0  0  0  0  0  0
  -25.0231    0.9078   30.1875 C   0  0  0  0  0  0  0  0  0  0  0  0
  -26.2532    0.3904   30.1401 C   0  0  0  0  0  0  0  0  0  0  0  0
  -22.8477    1.4431   29.0581 C   0  0  0  0  0  0  0  0  0  0  0  0
  -22.2903    1.6490   29.9358 O   0  0  0  0  0  0  0  0  0  0  0  0
  -22.2653    1.6692   27.8465 O   0  0  0  0  0  0  0  0  0  0  0  0
  -26.9874    0.3416   31.2722 F   0  0  0  0  0  0  0  0  0  0  0  0
  1  2  1  0
  5  8  1  0
  8  9  2  0
  8 10  1  0
  7 11  1  0
  2  3  2  0
  3  4  1  0
  4  5  2  0
  5  6  1  0
  6  7  2  0
  7  2  1  0
M  END

$$$$
