No_8-gen_results/8p0m/2024-11-27-11-27-31/
     RDKit          3D

 16 17  0  0  0  0  0  0  0  0999 V2000
  -28.0162   -0.8135   28.8779 C   0  0  0  0  0  0  0  0  0  0  0  0
  -27.0636   -0.1189   28.6079 C   0  0  0  0  0  0  0  0  0  0  0  0
  -27.0010    0.6913   27.4910 C   0  0  0  0  0  0  0  0  0  0  0  0
  -25.8548    1.4825   27.0830 C   0  0  0  0  0  0  0  0  0  0  0  0
  -24.6901    1.4526   27.8807 C   0  0  0  0  0  0  0  0  0  0  0  0
  -24.7379    0.6010   29.0416 C   0  0  0  0  0  0  0  0  0  0  0  0
  -25.8234   -0.1688   29.3887 C   0  0  0  0  0  0  0  0  0  0  0  0
  -27.8182   -1.9960   29.2551 F   0  0  0  0  0  0  0  0  0  0  0  0
  -28.8553   -0.2180   29.8550 F   0  0  0  0  0  0  0  0  0  0  0  0
  -23.3300    2.3504   27.5250 Cl  0  0  0  0  0  0  0  0  0  0  0  0
  -28.1127    0.8034   26.5726 C   0  0  0  0  0  0  0  0  0  0  0  0
  -27.9290    0.5262   25.1975 C   0  0  0  0  0  0  0  0  0  0  0  0
  -29.0529    0.4953   24.3299 C   0  0  0  0  0  0  0  0  0  0  0  0
  -30.0716    0.5145   24.7182 C   0  0  0  0  0  0  0  0  0  0  0  0
  -30.4699    0.6750   26.1394 C   0  0  0  0  0  0  0  0  0  0  0  0
  -29.4386    0.7849   27.0684 C   0  0  0  0  0  0  0  0  0  0  0  0
  1  2  1  0
  1  8  1  0
  1  9  1  0
  5 10  1  0
  3 11  1  0
 11 12  2  0
 12 13  1  0
 13 14  2  0
 14 15  1  0
 15 16  2  0
 16 11  1  0
  2  3  2  0
  3  4  1  0
  4  5  2  0
  5  6  1  0
  6  7  2  0
  7  2  1  0
M  END

$$$$
