No_899-gen_results/8p0m/2024-11-27-11-27-31/
     RDKit          3D

 35 38  0  0  0  0  0  0  0  0999 V2000
  -28.0162   -0.8135   28.8779 C   0  0  0  0  0  0  0  0  0  0  0  0
  -28.4690   -0.7850   29.8287 C   0  0  0  0  0  0  0  0  0  0  0  0
  -26.5042   -0.7777   28.8766 C   0  0  0  0  0  0  0  0  0  0  0  0
  -25.8103   -0.8531   30.1028 C   0  0  0  0  0  0  0  0  0  0  0  0
  -27.9906   -0.8916   31.2257 C   0  0  0  0  0  0  0  0  0  0  0  0
  -26.6042   -0.8676   31.2652 C   0  0  0  0  0  0  0  0  0  0  0  0
  -29.9765   -0.8288   29.8497 N   0  0  0  0  0  0  0  0  0  0  0  0
  -30.5795   -0.1232   28.9820 C   0  0  0  0  0  0  0  0  0  0  0  0
  -31.8655   -0.6748   28.4847 C   0  0  0  0  0  0  0  0  0  0  0  0
  -30.7114   -1.7353   30.6572 C   0  0  0  0  0  0  0  0  0  0  0  0
  -31.9661   -2.1692   30.2350 C   0  0  0  0  0  0  0  0  0  0  0  0
  -32.5768   -1.5456   29.2252 C   0  0  0  0  0  0  0  0  0  0  0  0
  -25.5644   -0.6893   27.4480 Cl  0  0  0  0  0  0  0  0  0  0  0  0
  -33.8055   -1.8803   28.8865 O   0  0  0  0  0  0  0  0  0  0  0  0
  -32.4785    0.0699   27.3343 C   0  0  0  0  0  0  0  0  0  0  0  0
  -32.7188    1.2046   27.3745 O   0  0  0  0  0  0  0  0  0  0  0  0
  -32.8522   -0.8067   26.3655 O   0  0  0  0  0  0  0  0  0  0  0  0
  -34.7793   -1.4985   29.5539 C   0  0  0  0  0  0  0  0  0  0  0  0
  -34.8250   -1.6769   30.7508 C   0  0  0  0  0  0  0  0  0  0  0  0
  -35.9666   -1.2891   31.6158 C   0  0  0  0  0  0  0  0  0  0  0  0
  -37.1072   -0.8903   30.8850 C   0  0  0  0  0  0  0  0  0  0  0  0
  -35.9305   -1.0730   28.8187 C   0  0  0  0  0  0  0  0  0  0  0  0
  -37.0535   -0.7429   29.5160 C   0  0  0  0  0  0  0  0  0  0  0  0
  -38.2554   -0.2682   28.7940 C   0  0  0  0  0  0  0  0  0  0  0  0
  -38.5326    0.9184   28.6358 F   0  0  0  0  0  0  0  0  0  0  0  0
  -39.3716   -0.9158   29.3690 F   0  0  0  0  0  0  0  0  0  0  0  0
  -38.1940   -0.8067   27.5279 F   0  0  0  0  0  0  0  0  0  0  0  0
  -33.6849   -0.3382   25.4018 C   0  0  0  0  0  0  0  0  0  0  0  0
  -33.4307   -0.6072   24.4330 C   0  0  0  0  0  0  0  0  0  0  0  0
  -34.0068    0.1385   23.3466 C   0  0  0  0  0  0  0  0  0  0  0  0
  -35.2033    0.8424   23.5016 C   0  0  0  0  0  0  0  0  0  0  0  0
  -35.6063    1.0051   24.9036 C   0  0  0  0  0  0  0  0  0  0  0  0
  -34.7948    0.4667   25.8226 C   0  0  0  0  0  0  0  0  0  0  0  0
  -36.7739    1.8807   25.1863 C   0  0  0  0  0  0  0  0  0  0  0  0
  -36.6720    2.9443   26.0186 C   0  0  0  0  0  0  0  0  0  0  0  0
  2  7  1  0
  7  8  1  0
  7 10  1  0
  9 12  1  0
 11 12  1  0
  3 13  1  0
 12 14  1  0
  9 15  1  0
 15 16  2  0
 15 17  1  0
 14 18  1  0
 23 24  1  0
 24 25  1  0
 24 26  1  0
 24 27  1  0
 17 28  1  0
 32 34  1  0
 34 35  1  0
  8  9  1  0
 11 10  1  0
 28 29  2  0
 29 30  1  0
 30 31  2  0
 31 32  1  0
 32 33  2  0
 33 28  1  0
 18 19  2  0
 19 20  1  0
 20 21  2  0
 21 23  1  0
 23 22  2  0
 22 18  1  0
  1  2  2  0
  2  5  1  0
  5  6  2  0
  6  4  1  0
  4  3  2  0
  3  1  1  0
M  END

$$$$
