No_82-gen_results/8p0m/2024-11-27-11-27-31/
     RDKit          3D

 17 18  0  0  0  0  0  0  0  0999 V2000
  -28.0162   -0.8135   28.8779 C   0  0  0  0  0  0  0  0  0  0  0  0
  -28.4690   -0.7850   29.8287 C   0  0  0  0  0  0  0  0  0  0  0  0
  -26.5042   -0.7777   28.8766 C   0  0  0  0  0  0  0  0  0  0  0  0
  -25.8103   -0.8531   30.1028 C   0  0  0  0  0  0  0  0  0  0  0  0
  -27.9906   -0.8916   31.2257 C   0  0  0  0  0  0  0  0  0  0  0  0
  -26.6042   -0.8676   31.2652 C   0  0  0  0  0  0  0  0  0  0  0  0
  -30.0739   -0.8360   29.8615 C   0  0  0  0  0  0  0  0  0  0  0  0
  -30.6529   -1.7943   30.2676 N   0  0  0  0  0  0  0  0  0  0  0  0
  -30.5853   -0.3977   28.4869 C   0  0  0  0  0  0  0  0  0  0  0  0
  -30.2483    0.7918   27.9537 C   0  0  0  0  0  0  0  0  0  0  0  0
  -30.6283    1.0627   26.6417 C   0  0  0  0  0  0  0  0  0  0  0  0
  -31.4370    0.1424   25.9778 C   0  0  0  0  0  0  0  0  0  0  0  0
  -31.7617   -1.0775   26.5508 C   0  0  0  0  0  0  0  0  0  0  0  0
  -31.2899   -1.3992   27.7922 C   0  0  0  0  0  0  0  0  0  0  0  0
  -31.7167   -2.2159   30.5493 C   0  0  0  0  0  0  0  0  0  0  0  0
  -32.1923   -3.6659   31.0834 Cl  0  0  0  0  0  0  0  0  0  0  0  0
  -32.7540   -1.4105   30.2604 O   0  0  0  0  0  0  0  0  0  0  0  0
  2  7  1  0
  7  8  1  0
  7  9  1  0
  8 15  1  0
 15 16  1  0
 15 17  2  0
  9 10  2  0
 10 11  1  0
 11 12  2  0
 12 13  1  0
 13 14  2  0
 14  9  1  0
  1  2  2  0
  2  5  1  0
  5  6  2  0
  6  4  1  0
  4  3  2  0
  3  1  1  0
M  END

$$$$
