No_80-gen_results/8p0m/2024-11-27-11-27-31/
     RDKit          3D

 31 33  0  0  0  0  0  0  0  0999 V2000
  -28.0162   -0.8135   28.8779 C   0  0  0  0  0  0  0  0  0  0  0  0
  -27.0636   -0.1189   28.6079 C   0  0  0  0  0  0  0  0  0  0  0  0
  -25.7923   -0.4302   29.0761 C   0  0  0  0  0  0  0  0  0  0  0  0
  -24.5456    0.3494   28.8225 C   0  0  0  0  0  0  0  0  0  0  0  0
  -24.6586    1.4196   27.8878 C   0  0  0  0  0  0  0  0  0  0  0  0
  -25.9471    1.6811   27.3792 C   0  0  0  0  0  0  0  0  0  0  0  0
  -27.0439    0.9739   27.6871 C   0  0  0  0  0  0  0  0  0  0  0  0
  -28.0241   -1.6475   30.1263 C   0  0  0  0  0  0  0  0  0  0  0  0
  -26.7278   -2.0846   30.5807 C   0  0  0  0  0  0  0  0  0  0  0  0
  -25.5915   -1.4064   30.1489 C   0  0  0  0  0  0  0  0  0  0  0  0
  -23.4486    2.1675   27.5241 C   0  0  0  0  0  0  0  0  0  0  0  0
  -22.5476    1.7970   28.0543 F   0  0  0  0  0  0  0  0  0  0  0  0
  -23.2735    2.1471   26.1356 F   0  0  0  0  0  0  0  0  0  0  0  0
  -23.7838    3.5077   27.7493 F   0  0  0  0  0  0  0  0  0  0  0  0
  -29.1677   -2.4673   30.5256 C   0  0  0  0  0  0  0  0  0  0  0  0
  -30.1225   -2.0200   30.8778 O   0  0  0  0  0  0  0  0  0  0  0  0
  -28.9191   -3.7287   30.5635 O   0  0  0  0  0  0  0  0  0  0  0  0
  -28.3271    1.3659   27.0254 C   0  0  0  0  0  0  0  0  0  0  0  0
  -28.4708    1.4430   25.8627 O   0  0  0  0  0  0  0  0  0  0  0  0
  -29.3504    1.5860   27.8041 O   0  0  0  0  0  0  0  0  0  0  0  0
  -30.0076   -4.6482   30.3876 C   0  0  0  0  0  0  0  0  0  0  0  0
  -30.3978   -4.9775   29.5221 C   0  0  0  0  0  0  0  0  0  0  0  0
  -31.4435   -6.0600   29.3266 C   0  0  0  0  0  0  0  0  0  0  0  0
  -31.9514   -6.4497   28.0435 C   0  0  0  0  0  0  0  0  0  0  0  0
  -31.3404   -5.7726   26.9541 C   0  0  0  0  0  0  0  0  0  0  0  0
  -30.4605   -4.8094   27.0800 C   0  0  0  0  0  0  0  0  0  0  0  0
  -29.9517   -4.4530   28.3736 C   0  0  0  0  0  0  0  0  0  0  0  0
  -29.9170   -5.7517   31.5326 C   0  0  0  0  0  0  0  0  0  0  0  0
  -30.7285   -6.4941   31.8740 O   0  0  0  0  0  0  0  0  0  0  0  0
  -28.7589   -5.7226   32.3190 O   0  0  0  0  0  0  0  0  0  0  0  0
  -32.7510   -7.4111   27.9111 F   0  0  0  0  0  0  0  0  0  0  0  0
  5 11  1  0
 11 12  1  0
 11 13  1  0
 11 14  1  0
  8 15  1  0
 15 16  2  0
 15 17  1  0
  7 18  1  0
 18 19  2  0
 18 20  1  0
 17 21  1  0
 21 28  1  0
 28 29  2  0
 28 30  1  0
 24 31  1  0
 21 22  1  0
  3  4  1  0
  4  5  2  0
  5  6  1  0
  6  7  2  0
  7  2  1  0
 22 23  2  0
 23 24  1  0
 24 25  2  0
 25 26  1  0
 26 27  2  0
 27 22  1  0
  1  2  2  0
  2  3  1  0
  3 10  2  0
 10  9  1  0
  9  8  2  0
  8  1  1  0
M  END

$$$$
