No_844-gen_results/8p0m/2024-11-27-11-27-31/
     RDKit          3D

 23 24  0  0  0  0  0  0  0  0999 V2000
  -28.0162   -0.8135   28.8779 C   0  0  0  0  0  0  0  0  0  0  0  0
  -28.4690   -0.7850   29.8287 C   0  0  0  0  0  0  0  0  0  0  0  0
  -26.5042   -0.7777   28.8766 C   0  0  0  0  0  0  0  0  0  0  0  0
  -25.6540   -0.6597   27.7191 C   0  0  0  0  0  0  0  0  0  0  0  0
  -27.9180   -0.9374   31.1824 C   0  0  0  0  0  0  0  0  0  0  0  0
  -26.5423   -0.9399   31.2606 C   0  0  0  0  0  0  0  0  0  0  0  0
  -25.6675   -0.8745   30.0954 C   0  0  0  0  0  0  0  0  0  0  0  0
  -24.3190   -0.2305   27.8102 C   0  0  0  0  0  0  0  0  0  0  0  0
  -23.6519   -0.3904   29.0481 C   0  0  0  0  0  0  0  0  0  0  0  0
  -24.3357   -0.6165   30.1891 C   0  0  0  0  0  0  0  0  0  0  0  0
  -22.1797   -0.0939   29.0670 C   0  0  0  0  0  0  0  0  0  0  0  0
  -21.5995    1.0486   28.1095 Cl  0  0  0  0  0  0  0  0  0  0  0  0
  -30.0582   -0.8953   29.8800 C   0  0  0  0  0  0  0  0  0  0  0  0
  -30.5038   -0.3351   28.9759 O   0  0  0  0  0  0  0  0  0  0  0  0
  -30.7177   -1.4168   30.8206 O   0  0  0  0  0  0  0  0  0  0  0  0
  -21.4047   -0.9669   29.5833 O   0  0  0  0  0  0  0  0  0  0  0  0
  -31.8673   -0.5838   28.4722 C   0  0  0  0  0  0  0  0  0  0  0  0
  -31.9286   -0.4639   27.1473 C   0  0  0  0  0  0  0  0  0  0  0  0
  -31.1434    0.0959   26.4719 O   0  0  0  0  0  0  0  0  0  0  0  0
  -30.6055   -0.3579   25.2429 C   0  0  0  0  0  0  0  0  0  0  0  0
  -32.9644   -1.1389   26.4391 C   0  0  0  0  0  0  0  0  0  0  0  0
  -33.8910   -1.9072   27.1410 N   0  0  0  0  0  0  0  0  0  0  0  0
  -33.6135   -2.7205   27.7241 C   0  0  0  0  0  0  0  0  0  0  0  0
  9 11  1  0
 11 12  1  0
  2 13  1  0
 13 14  1  0
 13 15  2  0
 11 16  2  0
 14 17  1  0
 17 18  1  0
 18 19  1  0
 19 20  1  0
 18 21  1  0
 21 22  1  0
 22 23  1  0
  1  2  2  0
  2  5  1  0
  5  6  2  0
  6  7  1  0
  3  1  1  0
  3  4  2  0
  4  8  1  0
  8  9  2  0
  9 10  1  0
 10  7  2  0
  7  3  1  0
M  END

$$$$
