No_833-gen_results/8p0m/2024-11-27-11-27-31/
     RDKit          3D

 16 17  0  0  0  0  0  0  0  0999 V2000
  -28.0162   -0.8135   28.8779 C   0  0  0  0  0  0  0  0  0  0  0  0
  -28.4690   -0.7850   29.8287 C   0  0  0  0  0  0  0  0  0  0  0  0
  -28.1960    0.3478   28.0550 C   0  0  0  0  0  0  0  0  0  0  0  0
  -29.0191    1.3501   28.3782 C   0  0  0  0  0  0  0  0  0  0  0  0
  -29.6249    1.2683   29.6012 C   0  0  0  0  0  0  0  0  0  0  0  0
  -29.3821    0.1816   30.4004 C   0  0  0  0  0  0  0  0  0  0  0  0
  -27.4497    0.3750   26.7070 C   0  0  0  0  0  0  0  0  0  0  0  0
  -25.9701    0.4005   26.7756 C   0  0  0  0  0  0  0  0  0  0  0  0
  -25.3165   -0.0839   27.8631 C   0  0  0  0  0  0  0  0  0  0  0  0
  -23.9163    0.0470   27.9628 C   0  0  0  0  0  0  0  0  0  0  0  0
  -23.2528    0.9804   27.1712 C   0  0  0  0  0  0  0  0  0  0  0  0
  -23.9178    1.6517   26.1335 C   0  0  0  0  0  0  0  0  0  0  0  0
  -25.3267    1.3965   25.9602 C   0  0  0  0  0  0  0  0  0  0  0  0
  -29.1860    2.3580   27.5847 O   0  0  0  0  0  0  0  0  0  0  0  0
  -21.5901    1.3728   27.3553 Cl  0  0  0  0  0  0  0  0  0  0  0  0
  -30.4625    2.2482   29.9734 O   0  0  0  0  0  0  0  0  0  0  0  0
  1  3  1  0
  3  4  1  0
  4  5  1  0
  2  6  1  0
  5  6  1  0
  3  7  1  0
  7  8  1  0
  4 14  2  0
 11 15  1  0
  5 16  1  0
  1  2  1  0
  8  9  2  0
  9 10  1  0
 10 11  2  0
 11 12  1  0
 12 13  2  0
 13  8  1  0
M  END

$$$$
