No_869-gen_results/8p0m/2024-11-27-11-27-31/
     RDKit          3D

 31 32  0  0  0  0  0  0  0  0999 V2000
  -28.0162   -0.8135   28.8779 C   0  0  0  0  0  0  0  0  0  0  0  0
  -27.0636   -0.1190   28.6079 C   0  0  0  0  0  0  0  0  0  0  0  0
  -26.9287    1.1713   29.0083 C   0  0  0  0  0  0  0  0  0  0  0  0
  -25.7702    2.0341   28.6884 C   0  0  0  0  0  0  0  0  0  0  0  0
  -24.7141    1.4431   27.9188 C   0  0  0  0  0  0  0  0  0  0  0  0
  -24.8590    0.0783   27.5836 C   0  0  0  0  0  0  0  0  0  0  0  0
  -25.9647   -0.6606   27.9164 C   0  0  0  0  0  0  0  0  0  0  0  0
  -28.0410   -1.4978   30.2732 C   0  0  0  0  0  0  0  0  0  0  0  0
  -29.0412   -2.4455   30.6173 C   0  0  0  0  0  0  0  0  0  0  0  0
  -23.5346    2.1813   27.5529 C   0  0  0  0  0  0  0  0  0  0  0  0
  -23.4854    3.0061   26.9035 F   0  0  0  0  0  0  0  0  0  0  0  0
  -22.5586    1.1795   27.0091 F   0  0  0  0  0  0  0  0  0  0  0  0
  -22.7978    2.4263   28.7765 F   0  0  0  0  0  0  0  0  0  0  0  0
  -26.9415   -1.3412   31.1563 C   0  0  0  0  0  0  0  0  0  0  0  0
  -28.8364   -3.5868   30.8505 O   0  0  0  0  0  0  0  0  0  0  0  0
  -30.3270   -2.0522   30.6009 N   0  0  0  0  0  0  0  0  0  0  0  0
  -31.4128   -2.9852   30.8403 C   0  0  0  0  0  0  0  0  0  0  0  0
  -32.7033   -2.5503   30.4009 C   0  0  0  0  0  0  0  0  0  0  0  0
  -33.0051   -1.3082   30.7342 C   0  0  0  0  0  0  0  0  0  0  0  0
  -34.0215   -0.7882   30.2212 O   0  0  0  0  0  0  0  0  0  0  0  0
  -32.2487   -0.5080   31.5424 N   0  0  0  0  0  0  0  0  0  0  0  0
  -32.5122    0.8061   31.8530 C   0  0  0  0  0  0  0  0  0  0  0  0
  -31.5634    1.4004   32.4804 C   0  0  0  0  0  0  0  0  0  0  0  0
  -30.3819    0.8044   32.8404 C   0  0  0  0  0  0  0  0  0  0  0  0
  -30.1646   -0.5345   32.5929 C   0  0  0  0  0  0  0  0  0  0  0  0
  -31.0480   -1.0982   31.8840 C   0  0  0  0  0  0  0  0  0  0  0  0
  -31.4114   -2.1330   32.9244 N   0  0  0  0  0  0  0  0  0  0  0  0
  -30.6768   -1.1445   29.4512 C   0  0  0  0  0  0  0  0  0  0  0  0
  -30.7116   -0.1862   31.6096 S   0  0  0  0  0  0  0  0  0  0  0  0
  -30.9750    0.6439   30.5515 O   0  0  0  0  0  0  0  0  0  0  0  0
  -29.2723   -0.1597   30.9825 O   0  0  0  0  0  0  0  0  0  0  0  0
  1  2  1  0
  1  8  1  0
  8  9  1  0
  5 10  1  0
 10 11  1  0
 10 12  1  0
 10 13  1  0
  8 14  1  0
  9 15  2  0
  9 16  1  0
 16 17  1  0
 17 18  1  0
 18 19  1  0
 19 20  2  0
 19 21  1  0
 21 22  1  0
 23 24  1  0
 21 26  1  0
 25 26  1  0
 26 27  1  0
 16 28  1  0
 26 29  1  0
 29 30  2  0
 29 31  2  0
 22 23  1  0
 24 25  1  0
  2  3  2  0
  3  4  1  0
  4  5  2  0
  5  6  1  0
  6  7  2  0
  7  2  1  0
M  END

$$$$
