No_866-gen_results/8p0m/2024-11-27-11-27-31/
     RDKit          3D

  8  8  0  0  0  0  0  0  0  0999 V2000
  -28.0162   -0.8135   28.8779 C   0  0  0  0  0  0  0  0  0  0  0  0
  -28.4690   -0.7850   29.8287 C   0  0  0  0  0  0  0  0  0  0  0  0
  -26.9162   -1.5644   28.7368 F   0  0  0  0  0  0  0  0  0  0  0  0
  -28.1645    0.0261   27.7584 C   0  0  0  0  0  0  0  0  0  0  0  0
  -29.4034    0.7099   27.5940 C   0  0  0  0  0  0  0  0  0  0  0  0
  -29.8202    0.0474   29.9068 C   0  0  0  0  0  0  0  0  0  0  0  0
  -30.1223    0.7715   28.7916 C   0  0  0  0  0  0  0  0  0  0  0  0
  -31.5486    1.7070   28.7948 Cl  0  0  0  0  0  0  0  0  0  0  0  0
  1  3  1  0
  7  8  1  0
  1  2  2  0
  2  6  1  0
  6  7  2  0
  7  5  1  0
  5  4  2  0
  4  1  1  0
M  END

$$$$
