No_83-gen_results/8p0m/2024-11-27-11-27-31/
     RDKit          3D

 15 15  0  0  0  0  0  0  0  0999 V2000
  -28.0162   -0.8135   28.8779 C   0  0  0  0  0  0  0  0  0  0  0  0
  -27.0636   -0.1189   28.6079 C   0  0  0  0  0  0  0  0  0  0  0  0
  -25.7647   -0.3897   29.0360 C   0  0  0  0  0  0  0  0  0  0  0  0
  -25.4887   -1.1536   29.7171 C   0  0  0  0  0  0  0  0  0  0  0  0
  -27.7606   -1.9034   29.8572 C   0  0  0  0  0  0  0  0  0  0  0  0
  -26.4781   -2.1057   30.2362 C   0  0  0  0  0  0  0  0  0  0  0  0
  -28.7192   -2.7359   30.2783 O   0  0  0  0  0  0  0  0  0  0  0  0
  -29.9284   -2.2706   30.6210 C   0  0  0  0  0  0  0  0  0  0  0  0
  -30.9060   -3.2006   30.2945 C   0  0  0  0  0  0  0  0  0  0  0  0
  -31.7037   -3.3607   31.0113 O   0  0  0  0  0  0  0  0  0  0  0  0
  -30.9060   -3.8541   29.1914 O   0  0  0  0  0  0  0  0  0  0  0  0
  -27.3974    1.2172   27.4874 Cl  0  0  0  0  0  0  0  0  0  0  0  0
  -24.7785    0.5574   28.5077 F   0  0  0  0  0  0  0  0  0  0  0  0
  -30.1028   -1.1167   31.2769 C   0  0  0  0  0  0  0  0  0  0  0  0
  -30.7913   -1.0008   32.0437 O   0  0  0  0  0  0  0  0  0  0  0  0
  5  7  1  0
  7  8  1  0
  8  9  1  0
  9 10  2  0
  9 11  1  0
  2 12  1  0
  3 13  1  0
  8 14  1  0
 14 15  2  0
  1  2  2  0
  2  3  1  0
  3  4  2  0
  4  6  1  0
  6  5  2  0
  5  1  1  0
M  END

$$$$
