No_870-gen_results/8p0m/2024-11-27-11-27-31/
     RDKit          3D

 35 38  0  0  0  0  0  0  0  0999 V2000
  -28.0162   -0.8135   28.8779 C   0  0  0  0  0  0  0  0  0  0  0  0
  -27.0636   -0.1189   28.6079 C   0  0  0  0  0  0  0  0  0  0  0  0
  -25.7923   -0.4302   29.0761 C   0  0  0  0  0  0  0  0  0  0  0  0
  -24.5456    0.3494   28.8225 C   0  0  0  0  0  0  0  0  0  0  0  0
  -23.2409    0.0217   29.3323 C   0  0  0  0  0  0  0  0  0  0  0  0
  -27.8820   -1.8995   29.8633 C   0  0  0  0  0  0  0  0  0  0  0  0
  -26.6526   -2.3141   30.3138 C   0  0  0  0  0  0  0  0  0  0  0  0
  -25.5153   -1.5607   29.9787 C   0  0  0  0  0  0  0  0  0  0  0  0
  -23.2160   -1.2277   30.0505 C   0  0  0  0  0  0  0  0  0  0  0  0
  -24.2438   -1.9369   30.3995 C   0  0  0  0  0  0  0  0  0  0  0  0
  -24.5818    1.5617   27.9589 C   0  0  0  0  0  0  0  0  0  0  0  0
  -24.7842    2.6368   28.4794 N   0  0  0  0  0  0  0  0  0  0  0  0
  -24.3804    1.4286   26.5687 C   0  0  0  0  0  0  0  0  0  0  0  0
  -24.9224    3.8008   27.7600 C   0  0  0  0  0  0  0  0  0  0  0  0
  -24.4307    2.5499   25.7714 C   0  0  0  0  0  0  0  0  0  0  0  0
  -24.6672    3.7661   26.4244 N   0  0  0  0  0  0  0  0  0  0  0  0
  -25.0625    5.0371   28.3323 N   0  0  0  0  0  0  0  0  0  0  0  0
  -25.7191    5.1461   29.5446 C   0  0  0  0  0  0  0  0  0  0  0  0
  -25.7673    6.4413   30.1096 C   0  0  0  0  0  0  0  0  0  0  0  0
  -24.8066    6.2300   27.7510 C   0  0  0  0  0  0  0  0  0  0  0  0
  -25.1472    7.3824   28.3498 C   0  0  0  0  0  0  0  0  0  0  0  0
  -25.5525    7.5642   29.5501 C   0  0  0  0  0  0  0  0  0  0  0  0
  -29.3032   -2.8362   30.2202 Cl  0  0  0  0  0  0  0  0  0  0  0  0
  -26.3497    6.3688   31.6029 C   0  0  0  0  0  0  0  0  0  0  0  0
  -26.6092    5.4388   32.1934 O   0  0  0  0  0  0  0  0  0  0  0  0
  -26.3839    7.5975   32.1703 O   0  0  0  0  0  0  0  0  0  0  0  0
  -26.9196    7.6995   33.3655 C   0  0  0  0  0  0  0  0  0  0  0  0
  -27.6385    8.8840   33.5510 C   0  0  0  0  0  0  0  0  0  0  0  0
  -27.4024    9.8122   32.9223 O   0  0  0  0  0  0  0  0  0  0  0  0
  -28.6739    8.8990   34.4751 N   0  0  0  0  0  0  0  0  0  0  0  0
  -29.5328   10.0412   34.6547 C   0  0  0  0  0  0  0  0  0  0  0  0
  -30.4940   10.0410   35.1931 C   0  0  0  0  0  0  0  0  0  0  0  0
  -31.3286   10.5188   35.5002 C   0  0  0  0  0  0  0  0  0  0  0  0
  -31.3735   12.0119   35.0919 C   0  0  0  0  0  0  0  0  0  0  0  0
  -30.2349   12.3424   34.3307 C   0  0  0  0  0  0  0  0  0  0  0  0
  4 11  1  0
 14 17  1  0
 17 18  1  0
 17 20  1  0
 19 22  1  0
 21 22  1  0
  6 23  1  0
 19 24  1  0
 24 25  2  0
 24 26  1  0
 26 27  1  0
 27 28  1  0
 28 29  2  0
 28 30  1  0
 30 31  1  0
 31 32  2  3
 32 33  1  0
 33 34  2  3
 34 35  1  0
 18 19  1  0
 21 20  1  0
 11 12  2  0
 12 14  1  0
 14 16  2  0
 16 15  1  0
 15 13  2  0
 13 11  1  0
  1  2  2  0
  2  3  1  0
  8  7  1  0
  7  6  2  0
  6  1  1  0
  3  4  2  0
  4  5  1  0
  5  9  2  0
  9 10  1  0
 10  8  2  0
  8  3  1  0
M  END

$$$$
