No_801-gen_results/8p0m/2024-11-27-11-27-31/
     RDKit          3D

 14 15  0  0  0  0  0  0  0  0999 V2000
  -28.0162   -0.8135   28.8779 C   0  0  0  0  0  0  0  0  0  0  0  0
  -28.4690   -0.7850   29.8287 C   0  0  0  0  0  0  0  0  0  0  0  0
  -26.5042   -0.7777   28.8766 C   0  0  0  0  0  0  0  0  0  0  0  0
  -25.8103   -0.8531   30.1028 C   0  0  0  0  0  0  0  0  0  0  0  0
  -27.9906   -0.8916   31.2257 C   0  0  0  0  0  0  0  0  0  0  0  0
  -26.6042   -0.8676   31.2652 C   0  0  0  0  0  0  0  0  0  0  0  0
  -30.0417   -0.7687   29.6526 C   0  0  0  0  0  0  0  0  0  0  0  0
  -30.8000   -1.5937   30.1656 N   0  0  0  0  0  0  0  0  0  0  0  0
  -30.4443   -0.0910   28.6532 O   0  0  0  0  0  0  0  0  0  0  0  0
  -31.8478   -1.9520   29.9731 C   0  0  0  0  0  0  0  0  0  0  0  0
  -32.3037   -3.1013   30.2583 C   0  0  0  0  0  0  0  0  0  0  0  0
  -31.4831   -3.9180   31.1114 C   0  0  0  0  0  0  0  0  0  0  0  0
  -30.2006   -3.6399   31.4323 C   0  0  0  0  0  0  0  0  0  0  0  0
  -29.8149   -2.5522   30.9281 C   0  0  0  0  0  0  0  0  0  0  0  0
  2  7  1  0
  7  8  1  0
  7  9  2  0
  8 10  1  0
 11 12  1  0
  8 14  1  0
 13 14  1  0
 10 11  1  0
 12 13  1  0
  1  2  2  0
  2  5  1  0
  5  6  2  0
  6  4  1  0
  4  3  2  0
  3  1  1  0
M  END

$$$$
