No_809-gen_results/8p0m/2024-11-27-11-27-31/
     RDKit          3D

 17 19  0  0  0  0  0  0  0  0999 V2000
  -28.0162   -0.8135   28.8779 C   0  0  0  0  0  0  0  0  0  0  0  0
  -27.0636   -0.1189   28.6079 C   0  0  0  0  0  0  0  0  0  0  0  0
  -25.7923   -0.4302   29.0761 C   0  0  0  0  0  0  0  0  0  0  0  0
  -24.5456    0.3494   28.8225 C   0  0  0  0  0  0  0  0  0  0  0  0
  -23.2409    0.0217   29.3323 C   0  0  0  0  0  0  0  0  0  0  0  0
  -23.1926   -1.2816   29.8967 C   0  0  0  0  0  0  0  0  0  0  0  0
  -27.8703   -1.9138   29.8642 C   0  0  0  0  0  0  0  0  0  0  0  0
  -26.6310   -2.3256   30.2990 C   0  0  0  0  0  0  0  0  0  0  0  0
  -25.5115   -1.5728   29.9655 C   0  0  0  0  0  0  0  0  0  0  0  0
  -24.2167   -1.9673   30.3246 C   0  0  0  0  0  0  0  0  0  0  0  0
  -24.5912    1.5912   27.9920 C   0  0  0  0  0  0  0  0  0  0  0  0
  -24.7855    2.7097   28.6079 C   0  0  0  0  0  0  0  0  0  0  0  0
  -25.7760    3.5207   28.1119 C   0  0  0  0  0  0  0  0  0  0  0  0
  -25.9821    3.5050   26.7129 C   0  0  0  0  0  0  0  0  0  0  0  0
  -24.5953    1.4964   26.6737 N   0  0  0  0  0  0  0  0  0  0  0  0
  -25.3914    2.3858   26.0193 C   0  0  0  0  0  0  0  0  0  0  0  0
  -29.2497   -2.9253   30.2917 Cl  0  0  0  0  0  0  0  0  0  0  0  0
  4 11  1  0
  7 17  1  0
 11 12  2  0
 12 13  1  0
 13 14  2  0
 14 16  1  0
 16 15  2  0
 15 11  1  0
  1  2  2  0
  2  3  1  0
  9  8  1  0
  8  7  2  0
  7  1  1  0
  3  4  2  0
  4  5  1  0
  5  6  2  0
  6 10  1  0
 10  9  2  0
  9  3  1  0
M  END

$$$$
