No_848-gen_results/8p0m/2024-11-27-11-27-31/
     RDKit          3D

 12 13  0  0  0  0  0  0  0  0999 V2000
  -28.0162   -0.8135   28.8779 C   0  0  0  0  0  0  0  0  0  0  0  0
  -28.4690   -0.7850   29.8287 C   0  0  0  0  0  0  0  0  0  0  0  0
  -26.5042   -0.7777   28.8766 C   0  0  0  0  0  0  0  0  0  0  0  0
  -25.8103   -0.8531   30.1028 C   0  0  0  0  0  0  0  0  0  0  0  0
  -27.9906   -0.8916   31.2257 C   0  0  0  0  0  0  0  0  0  0  0  0
  -26.6042   -0.8676   31.2652 C   0  0  0  0  0  0  0  0  0  0  0  0
  -24.5004   -0.7818   30.1446 O   0  0  0  0  0  0  0  0  0  0  0  0
  -23.8455    0.2950   29.6103 C   0  0  0  0  0  0  0  0  0  0  0  0
  -23.6132    1.3411   30.3332 C   0  0  0  0  0  0  0  0  0  0  0  0
  -23.3006    2.5722   29.7108 C   0  0  0  0  0  0  0  0  0  0  0  0
  -22.9750    2.5276   28.3370 C   0  0  0  0  0  0  0  0  0  0  0  0
  -23.8100    0.7520   28.2525 C   0  0  0  0  0  0  0  0  0  0  0  0
  4  7  1  0
  7  8  1  0
  8  9  1  0
  9 10  2  0
 10 11  1  0
  8 12  1  0
 11 12  2  0
  1  2  2  0
  2  5  1  0
  5  6  2  0
  6  4  1  0
  4  3  2  0
  3  1  1  0
M  END

$$$$
