No_823-gen_results/8p0m/2024-11-27-11-27-31/
     RDKit          3D

 35 38  0  0  0  0  0  0  0  0999 V2000
  -28.0162   -0.8135   28.8779 C   0  0  0  0  0  0  0  0  0  0  0  0
  -27.0636   -0.1189   28.6079 C   0  0  0  0  0  0  0  0  0  0  0  0
  -25.7923   -0.4302   29.0761 C   0  0  0  0  0  0  0  0  0  0  0  0
  -24.5456    0.3494   28.8225 C   0  0  0  0  0  0  0  0  0  0  0  0
  -24.6586    1.4196   27.8878 C   0  0  0  0  0  0  0  0  0  0  0  0
  -25.9471    1.6811   27.3792 C   0  0  0  0  0  0  0  0  0  0  0  0
  -27.0439    0.9739   27.6871 C   0  0  0  0  0  0  0  0  0  0  0  0
  -28.6567   -0.5529   30.0960 N   0  0  0  0  0  0  0  0  0  0  0  0
  -28.5841    0.2509   30.7384 C   0  0  0  0  0  0  0  0  0  0  0  0
  -28.7996    0.8319   31.7151 C   0  0  0  0  0  0  0  0  0  0  0  0
  -29.0037    1.9598   32.5040 C   0  0  0  0  0  0  0  0  0  0  0  0
  -29.0711    3.2615   32.0044 C   0  0  0  0  0  0  0  0  0  0  0  0
  -29.1918    4.4309   32.8347 C   0  0  0  0  0  0  0  0  0  0  0  0
  -29.2621    4.1437   34.2168 C   0  0  0  0  0  0  0  0  0  0  0  0
  -29.4048    5.2709   35.1288 C   0  0  0  0  0  0  0  0  0  0  0  0
  -29.0973    2.8771   34.6937 C   0  0  0  0  0  0  0  0  0  0  0  0
  -28.9171    1.8413   33.9067 C   0  0  0  0  0  0  0  0  0  0  0  0
  -23.4676    2.1872   27.5995 C   0  0  0  0  0  0  0  0  0  0  0  0
  -22.2638    1.7692   28.0493 N   0  0  0  0  0  0  0  0  0  0  0  0
  -23.5507    3.1108   26.6303 N   0  0  0  0  0  0  0  0  0  0  0  0
  -29.1570    6.4233   34.7318 N   0  0  0  0  0  0  0  0  0  0  0  0
  -29.4086    5.0023   36.3697 O   0  0  0  0  0  0  0  0  0  0  0  0
  -29.2612    7.6142   35.6007 C   0  0  0  0  0  0  0  0  0  0  0  0
  -29.0612    8.6476   35.3382 C   0  0  0  0  0  0  0  0  0  0  0  0
  -28.7539   -0.3061   32.9180 C   0  0  0  0  0  0  0  0  0  0  0  0
  -28.8731    0.4186   34.1518 N   0  0  0  0  0  0  0  0  0  0  0  0
  -29.5846   -1.7088   30.5291 C   0  0  0  0  0  0  0  0  0  0  0  0
  -29.1804    9.7896   36.2720 C   0  0  0  0  0  0  0  0  0  0  0  0
  -29.6219    9.5009   37.5741 C   0  0  0  0  0  0  0  0  0  0  0  0
  -29.8577    8.1666   37.8669 C   0  0  0  0  0  0  0  0  0  0  0  0
  -29.6753    7.1893   36.9373 C   0  0  0  0  0  0  0  0  0  0  0  0
  -30.3031    7.7977   39.2459 C   0  0  0  0  0  0  0  0  0  0  0  0
  -30.4250    8.6735   40.0378 F   0  0  0  0  0  0  0  0  0  0  0  0
  -31.4677    7.0983   39.1163 F   0  0  0  0  0  0  0  0  0  0  0  0
  -29.3743    6.8578   39.6590 F   0  0  0  0  0  0  0  0  0  0  0  0
  1  2  1  0
  1  8  1  0
  8  9  1  0
  9 10  2  3
 10 11  1  0
 14 15  1  0
  5 18  1  0
 18 19  1  0
 18 20  2  0
 15 21  1  0
 15 22  2  0
 21 23  1  0
 10 25  1  0
 17 26  1  0
 25 26  2  0
  8 27  1  0
 30 32  1  0
 32 33  1  0
 32 34  1  0
 32 35  1  0
  2  3  2  0
  3  4  1  0
  4  5  2  0
  5  6  1  0
  6  7  2  0
  7  2  1  0
 23 24  2  0
 24 28  1  0
 28 29  2  0
 29 30  1  0
 30 31  2  0
 31 23  1  0
 11 12  2  0
 12 13  1  0
 13 14  2  0
 14 16  1  0
 16 17  2  0
 17 11  1  0
M  END

$$$$
