No_863-gen_results/8p0m/2024-11-27-11-27-31/
     RDKit          3D

 22 25  0  0  0  0  0  0  0  0999 V2000
  -28.0162   -0.8135   28.8779 C   0  0  0  0  0  0  0  0  0  0  0  0
  -28.4690   -0.7850   29.8287 C   0  0  0  0  0  0  0  0  0  0  0  0
  -28.1960    0.3478   28.0550 C   0  0  0  0  0  0  0  0  0  0  0  0
  -29.0191    1.3501   28.3782 C   0  0  0  0  0  0  0  0  0  0  0  0
  -29.6249    1.2683   29.6012 C   0  0  0  0  0  0  0  0  0  0  0  0
  -29.3821    0.1816   30.4004 C   0  0  0  0  0  0  0  0  0  0  0  0
  -27.4591    0.3787   26.7048 C   0  0  0  0  0  0  0  0  0  0  0  0
  -26.1349    0.3565   26.8182 C   0  0  0  0  0  0  0  0  0  0  0  0
  -25.3309    0.2623   28.0080 C   0  0  0  0  0  0  0  0  0  0  0  0
  -23.9453    0.2953   27.9566 C   0  0  0  0  0  0  0  0  0  0  0  0
  -23.1537    0.0278   29.1145 C   0  0  0  0  0  0  0  0  0  0  0  0
  -23.8161   -0.2948   30.2767 C   0  0  0  0  0  0  0  0  0  0  0  0
  -25.1562   -0.2726   30.3986 C   0  0  0  0  0  0  0  0  0  0  0  0
  -25.9057   -0.1081   29.2893 C   0  0  0  0  0  0  0  0  0  0  0  0
  -27.0553   -0.6130   29.3073 N   0  0  0  0  0  0  0  0  0  0  0  0
  -26.5502   -1.8445   30.0719 C   0  0  0  0  0  0  0  0  0  0  0  0
  -25.7873   -1.2138   31.2525 C   0  0  0  0  0  0  0  0  0  0  0  0
  -29.2374   -1.6621   30.6724 C   0  0  0  0  0  0  0  0  0  0  0  0
  -29.0576   -1.6673   31.9749 C   0  0  0  0  0  0  0  0  0  0  0  0
  -29.8955   -2.6727   30.0478 C   0  0  0  0  0  0  0  0  0  0  0  0
  -29.7675   -3.8623   30.2195 O   0  0  0  0  0  0  0  0  0  0  0  0
  -29.0239   -1.1544   32.9446 Cl  0  0  0  0  0  0  0  0  0  0  0  0
  3  7  1  0
  7  8  2  0
  8  9  1  0
  1 15  1  0
 14 15  1  0
 15 16  1  0
 13 17  1  0
 16 17  1  0
  2 18  1  0
 18 19  1  0
 18 20  1  0
 20 21  2  0
 19 22  1  0
  1  2  2  0
  2  6  1  0
  6  5  2  0
  5  4  1  0
  4  3  2  0
  3  1  1  0
  9 10  2  0
 10 11  1  0
 11 12  2  0
 12 13  1  0
 13 14  2  0
 14  9  1  0
M  END

$$$$
