No_822-gen_results/8p0m/2024-11-27-11-27-31/
     RDKit          3D

 20 21  0  0  0  0  0  0  0  0999 V2000
  -28.1493   -0.8198   28.9079 Cl  0  0  0  0  0  0  0  0  0  0  0  0
  -26.9116   -0.0797   28.9452 C   0  0  0  0  0  0  0  0  0  0  0  0
  -25.9665   -0.2123   29.6235 C   0  0  0  0  0  0  0  0  0  0  0  0
  -24.7040    0.5534   29.6218 C   0  0  0  0  0  0  0  0  0  0  0  0
  -24.6011    1.5437   28.6212 C   0  0  0  0  0  0  0  0  0  0  0  0
  -25.6671    1.7162   27.8026 C   0  0  0  0  0  0  0  0  0  0  0  0
  -26.7607    0.9618   27.8837 C   0  0  0  0  0  0  0  0  0  0  0  0
  -23.5246    2.2838   28.6050 F   0  0  0  0  0  0  0  0  0  0  0  0
  -27.7652    1.1547   27.0211 F   0  0  0  0  0  0  0  0  0  0  0  0
  -23.5553    0.3541   30.5605 C   0  0  0  0  0  0  0  0  0  0  0  0
  -23.7980    0.7361   31.7224 F   0  0  0  0  0  0  0  0  0  0  0  0
  -22.6830   -0.4188   30.2950 F   0  0  0  0  0  0  0  0  0  0  0  0
  -25.5743    2.6831   26.8605 F   0  0  0  0  0  0  0  0  0  0  0  0
  -25.9188   -1.2162   30.6145 O   0  0  0  0  0  0  0  0  0  0  0  0
  -26.7287   -1.1459   31.6348 C   0  0  0  0  0  0  0  0  0  0  0  0
  -26.2828   -0.4668   32.7985 C   0  0  0  0  0  0  0  0  0  0  0  0
  -27.2422   -0.2559   33.8548 C   0  0  0  0  0  0  0  0  0  0  0  0
  -28.4806   -0.8693   33.7103 C   0  0  0  0  0  0  0  0  0  0  0  0
  -28.8472   -1.5524   32.5799 C   0  0  0  0  0  0  0  0  0  0  0  0
  -27.9760   -1.6554   31.5425 C   0  0  0  0  0  0  0  0  0  0  0  0
  1  2  1  0
  5  8  1  0
  7  9  1  0
  4 10  1  0
 10 11  1  0
 10 12  1  0
  6 13  1  0
  3 14  1  0
 14 15  1  0
 15 16  2  0
 16 17  1  0
 17 18  2  0
 18 19  1  0
 19 20  2  0
 20 15  1  0
  2  3  2  0
  3  4  1  0
  4  5  2  0
  5  6  1  0
  6  7  2  0
  7  2  1  0
M  END

$$$$
