No_814-gen_results/8p0m/2024-11-27-11-27-31/
     RDKit          3D

 24 25  0  0  0  0  0  0  0  0999 V2000
  -28.0162   -0.8135   28.8779 C   0  0  0  0  0  0  0  0  0  0  0  0
  -27.0636   -0.1189   28.6079 C   0  0  0  0  0  0  0  0  0  0  0  0
  -26.9716    0.7139   27.5060 C   0  0  0  0  0  0  0  0  0  0  0  0
  -28.1053    0.7744   26.6421 C   0  0  0  0  0  0  0  0  0  0  0  0
  -29.2008    0.1044   27.0527 C   0  0  0  0  0  0  0  0  0  0  0  0
  -29.2096   -0.6029   28.1853 C   0  0  0  0  0  0  0  0  0  0  0  0
  -30.5651    0.2430   26.0493 Cl  0  0  0  0  0  0  0  0  0  0  0  0
  -25.8645   -0.3137   29.5882 C   0  0  0  0  0  0  0  0  0  0  0  0
  -24.8698    0.6151   29.6912 C   0  0  0  0  0  0  0  0  0  0  0  0
  -23.8967    0.7741   29.4543 C   0  0  0  0  0  0  0  0  0  0  0  0
  -23.0565   -0.3957   28.9576 C   0  0  0  0  0  0  0  0  0  0  0  0
  -23.7612   -1.6269   29.0371 C   0  0  0  0  0  0  0  0  0  0  0  0
  -25.9985   -1.1796   30.7092 C   0  0  0  0  0  0  0  0  0  0  0  0
  -24.6900   -2.0970   29.9176 C   0  0  0  0  0  0  0  0  0  0  0  0
  -21.8233   -0.2985   28.6670 F   0  0  0  0  0  0  0  0  0  0  0  0
  -28.0487    1.6156   25.5822 O   0  0  0  0  0  0  0  0  0  0  0  0
  -25.6185    2.1548   29.7468 C   0  0  0  0  0  0  0  0  0  0  0  0
  -25.6959    2.6194   30.8686 O   0  0  0  0  0  0  0  0  0  0  0  0
  -25.6568    2.9121   28.7347 O   0  0  0  0  0  0  0  0  0  0  0  0
  -25.6715    4.2456   28.8686 C   0  0  0  0  0  0  0  0  0  0  0  0
  -25.4286    4.9034   27.5093 C   0  0  0  0  0  0  0  0  0  0  0  0
  -25.1098    4.2025   26.6374 O   0  0  0  0  0  0  0  0  0  0  0  0
  -25.4943    6.1647   27.3935 O   0  0  0  0  0  0  0  0  0  0  0  0
  -27.0530    1.3917   24.7351 C   0  0  0  0  0  0  0  0  0  0  0  0
  5  7  1  0
  2  8  1  0
  8  9  1  0
  9 10  2  0
 10 11  1  0
 11 12  2  0
  8 13  1  0
 12 14  1  0
 13 14  1  0
 11 15  1  0
  4 16  1  0
  9 17  1  0
 17 18  2  0
 17 19  1  0
 19 20  1  0
 20 21  1  0
 21 22  1  0
 21 23  2  0
 16 24  1  0
  1  2  2  0
  2  3  1  0
  3  4  2  0
  4  5  1  0
  5  6  2  0
  6  1  1  0
M  END

$$$$
