No_885-gen_results/8p0m/2024-11-27-11-27-31/
     RDKit          3D

 13 14  0  0  0  0  0  0  0  0999 V2000
  -28.0162   -0.8135   28.8779 C   0  0  0  0  0  0  0  0  0  0  0  0
  -27.0636   -0.1190   28.6079 C   0  0  0  0  0  0  0  0  0  0  0  0
  -26.9287    1.1713   29.0083 C   0  0  0  0  0  0  0  0  0  0  0  0
  -27.9560    1.7411   29.7840 C   0  0  0  0  0  0  0  0  0  0  0  0
  -29.0569   -0.3271   29.7466 C   0  0  0  0  0  0  0  0  0  0  0  0
  -28.9828    0.9722   30.1516 C   0  0  0  0  0  0  0  0  0  0  0  0
  -25.6042   -0.7936   27.5664 Br  0  0  0  0  0  0  0  0  0  0  0  0
  -30.0822    1.5155   31.0142 C   0  0  0  0  0  0  0  0  0  0  0  0
  -31.1089    1.1667   31.1045 C   0  0  0  0  0  0  0  0  0  0  0  0
  -32.1791    1.7467   31.9685 C   0  0  0  0  0  0  0  0  0  0  0  0
  -31.8065    2.8926   32.7015 C   0  0  0  0  0  0  0  0  0  0  0  0
  -30.5351    3.3527   32.5953 C   0  0  0  0  0  0  0  0  0  0  0  0
  -29.5915    2.7405   31.7944 C   0  0  0  0  0  0  0  0  0  0  0  0
  2  7  1  0
  6  8  1  0
  1  2  2  0
  2  3  1  0
  3  4  2  0
  4  6  1  0
  6  5  2  0
  5  1  1  0
  8  9  2  0
  9 10  1  0
 10 11  2  0
 11 12  1  0
 12 13  2  0
 13  8  1  0
M  END

$$$$
