No_861-gen_results/8p0m/2024-11-27-11-27-31/
     RDKit          3D

 35 38  0  0  0  0  0  0  0  0999 V2000
  -28.0162   -0.8135   28.8779 C   0  0  0  0  0  0  0  0  0  0  0  0
  -27.0636   -0.1190   28.6079 C   0  0  0  0  0  0  0  0  0  0  0  0
  -27.0010    0.6913   27.4910 C   0  0  0  0  0  0  0  0  0  0  0  0
  -28.1420    0.8282   26.7994 C   0  0  0  0  0  0  0  0  0  0  0  0
  -29.2898   -0.4871   28.3661 C   0  0  0  0  0  0  0  0  0  0  0  0
  -29.2849    0.2608   27.2623 C   0  0  0  0  0  0  0  0  0  0  0  0
  -27.9393   -1.6862   30.1403 C   0  0  0  0  0  0  0  0  0  0  0  0
  -28.6761   -1.9168   30.8763 O   0  0  0  0  0  0  0  0  0  0  0  0
  -26.6589   -2.1931   30.3158 O   0  0  0  0  0  0  0  0  0  0  0  0
  -30.4296    0.4511   26.5887 F   0  0  0  0  0  0  0  0  0  0  0  0
  -25.7048    1.3337   27.0020 C   0  0  0  0  0  0  0  0  0  0  0  0
  -24.6428    0.9232   27.6023 N   0  0  0  0  0  0  0  0  0  0  0  0
  -23.4767    1.7306   27.7008 C   0  0  0  0  0  0  0  0  0  0  0  0
  -23.0382    2.2479   26.6594 C   0  0  0  0  0  0  0  0  0  0  0  0
  -25.6223    2.2278   26.0212 C   0  0  0  0  0  0  0  0  0  0  0  0
  -24.2683    2.9419   25.8741 C   0  0  0  0  0  0  0  0  0  0  0  0
  -22.4699    1.2701   28.5871 N   0  0  0  0  0  0  0  0  0  0  0  0
  -21.3506    0.6860   28.2430 C   0  0  0  0  0  0  0  0  0  0  0  0
  -22.9746    1.2368   30.0339 C   0  0  0  0  0  0  0  0  0  0  0  0
  -23.9395    2.1111   30.4977 C   0  0  0  0  0  0  0  0  0  0  0  0
  -24.8557    1.6642   31.5297 C   0  0  0  0  0  0  0  0  0  0  0  0
  -24.9361    0.4000   31.9249 C   0  0  0  0  0  0  0  0  0  0  0  0
  -25.8237   -0.0137   32.9382 C   0  0  0  0  0  0  0  0  0  0  0  0
  -26.6678    0.9107   33.5274 C   0  0  0  0  0  0  0  0  0  0  0  0
  -26.5678    2.2856   33.1808 C   0  0  0  0  0  0  0  0  0  0  0  0
  -25.6862    2.6925   32.1999 C   0  0  0  0  0  0  0  0  0  0  0  0
  -25.5786    4.0875   31.8569 C   0  0  0  0  0  0  0  0  0  0  0  0
  -25.9800    4.5846   30.7946 O   0  0  0  0  0  0  0  0  0  0  0  0
  -24.8996    4.8938   32.7738 O   0  0  0  0  0  0  0  0  0  0  0  0
  -27.6147    0.5077   34.6030 C   0  0  0  0  0  0  0  0  0  0  0  0
  -28.5996    0.6805   34.6700 C   0  0  0  0  0  0  0  0  0  0  0  0
  -29.5770    0.2536   35.7319 C   0  0  0  0  0  0  0  0  0  0  0  0
  -26.9431   -0.2975   35.6735 C   0  0  0  0  0  0  0  0  0  0  0  0
  -27.6981   -0.8134   36.7338 C   0  0  0  0  0  0  0  0  0  0  0  0
  -29.0360   -0.4968   36.7627 C   0  0  0  0  0  0  0  0  0  0  0  0
  1  7  1  0
  7  8  2  0
  7  9  1  0
  6 10  1  0
  3 11  1  0
 13 17  1  0
 17 18  1  0
 17 19  1  0
 19 20  1  0
 20 21  1  0
 26 27  1  0
 27 28  2  0
 27 29  1  0
 24 30  1  0
 21 22  2  0
 22 23  1  0
 23 24  2  0
 24 25  1  0
 25 26  2  0
 26 21  1  0
  1  2  2  0
  2  3  1  0
  3  4  2  0
  4  6  1  0
  6  5  2  0
  5  1  1  0
 30 31  2  0
 31 32  1  0
 32 35  2  0
 35 34  1  0
 34 33  2  0
 33 30  1  0
 11 12  2  0
 12 13  1  0
 13 14  2  0
 14 16  1  0
 16 15  2  0
 15 11  1  0
M  END

$$$$
