No_811-gen_results/8p0m/2024-11-27-11-27-31/
     RDKit          3D

 13 13  0  0  0  0  0  0  0  0999 V2000
  -28.0162   -0.8135   28.8779 C   0  0  0  0  0  0  0  0  0  0  0  0
  -27.0636   -0.1190   28.6079 C   0  0  0  0  0  0  0  0  0  0  0  0
  -25.7923   -0.4302   29.0761 C   0  0  0  0  0  0  0  0  0  0  0  0
  -24.5456    0.3494   28.8225 C   0  0  0  0  0  0  0  0  0  0  0  0
  -24.6586    1.4196   27.8878 C   0  0  0  0  0  0  0  0  0  0  0  0
  -25.9471    1.6811   27.3792 C   0  0  0  0  0  0  0  0  0  0  0  0
  -27.0439    0.9739   27.6871 C   0  0  0  0  0  0  0  0  0  0  0  0
  -29.5277   -0.2280   28.6625 Cl  0  0  0  0  0  0  0  0  0  0  0  0
  -27.9151   -1.9486   29.5875 O   0  0  0  0  0  0  0  0  0  0  0  0
  -23.6021    2.3247   27.6026 C   0  0  0  0  0  0  0  0  0  0  0  0
  -22.5692    2.0772   27.1927 N   0  0  0  0  0  0  0  0  0  0  0  0
  -23.9260    3.6163   27.5582 O   0  0  0  0  0  0  0  0  0  0  0  0
  -23.0417   -0.0533   29.4804 Cl  0  0  0  0  0  0  0  0  0  0  0  0
  1  2  1  0
  1  8  1  0
  1  9  2  0
  5 10  1  0
 10 11  2  0
 10 12  1  0
  4 13  1  0
  2  3  2  0
  3  4  1  0
  4  5  2  0
  5  6  1  0
  6  7  2  0
  7  2  1  0
M  END

$$$$
