No_873-gen_results/8p0m/2024-11-27-11-27-31/
     RDKit          3D

 14 14  0  0  0  0  0  0  0  0999 V2000
  -28.0162   -0.8135   28.8779 C   0  0  0  0  0  0  0  0  0  0  0  0
  -28.4690   -0.7850   29.8287 C   0  0  0  0  0  0  0  0  0  0  0  0
  -28.1960    0.3478   28.0550 C   0  0  0  0  0  0  0  0  0  0  0  0
  -27.4421    0.5100   26.7946 C   0  0  0  0  0  0  0  0  0  0  0  0
  -27.8427    1.3330   25.8056 C   0  0  0  0  0  0  0  0  0  0  0  0
  -28.2558   -1.9271   30.8901 C   0  0  0  0  0  0  0  0  0  0  0  0
  -27.4492   -2.9641   30.4317 C   0  0  0  0  0  0  0  0  0  0  0  0
  -26.6412   -2.8044   29.3509 C   0  0  0  0  0  0  0  0  0  0  0  0
  -26.7826   -1.6363   28.6124 C   0  0  0  0  0  0  0  0  0  0  0  0
  -28.1270    1.6017   28.5791 O   0  0  0  0  0  0  0  0  0  0  0  0
  -25.6847   -3.7388   29.0819 O   0  0  0  0  0  0  0  0  0  0  0  0
  -24.3325   -3.3613   29.0614 C   0  0  0  0  0  0  0  0  0  0  0  0
  -27.7476    0.8192   24.5132 C   0  0  0  0  0  0  0  0  0  0  0  0
  -27.0016    2.6215   25.9200 C   0  0  0  0  0  0  0  0  0  0  0  0
  1  3  1  0
  3  4  1  0
  4  5  1  0
  3 10  1  0
  8 11  1  0
 11 12  1  0
  5 13  2  0
  5 14  1  0
  1  2  2  0
  2  6  1  0
  6  7  2  0
  7  8  1  0
  8  9  2  0
  9  1  1  0
M  END

$$$$
