No_884-gen_results/8p0m/2024-11-27-11-27-31/
     RDKit          3D

 31 33  0  0  0  0  0  0  0  0999 V2000
  -28.0162   -0.8135   28.8779 C   0  0  0  0  0  0  0  0  0  0  0  0
  -28.4690   -0.7850   29.8287 C   0  0  0  0  0  0  0  0  0  0  0  0
  -26.5042   -0.7777   28.8766 C   0  0  0  0  0  0  0  0  0  0  0  0
  -25.9500    0.1157   29.4052 C   0  0  0  0  0  0  0  0  0  0  0  0
  -29.9713   -0.8318   29.8595 C   0  0  0  0  0  0  0  0  0  0  0  0
  -26.5443    0.4866   30.7701 C   0  0  0  0  0  0  0  0  0  0  0  0
  -27.9173    0.0753   31.0021 C   0  0  0  0  0  0  0  0  0  0  0  0
  -30.6454   -0.1254   30.6507 O   0  0  0  0  0  0  0  0  0  0  0  0
  -30.4853   -1.8360   29.2423 O   0  0  0  0  0  0  0  0  0  0  0  0
  -24.4959    0.3672   29.4348 C   0  0  0  0  0  0  0  0  0  0  0  0
  -23.5106   -0.4629   29.7458 C   0  0  0  0  0  0  0  0  0  0  0  0
  -22.5377   -0.5866   29.4922 C   0  0  0  0  0  0  0  0  0  0  0  0
  -21.7774    0.4810   28.6379 C   0  0  0  0  0  0  0  0  0  0  0  0
  -22.6485    1.4267   28.1423 C   0  0  0  0  0  0  0  0  0  0  0  0
  -24.0227    1.4530   28.5344 C   0  0  0  0  0  0  0  0  0  0  0  0
  -24.8927    2.4778   28.0156 C   0  0  0  0  0  0  0  0  0  0  0  0
  -26.1174    2.0705   27.9336 F   0  0  0  0  0  0  0  0  0  0  0  0
  -24.4611    3.0290   26.9052 F   0  0  0  0  0  0  0  0  0  0  0  0
  -24.8078    3.4949   29.0529 F   0  0  0  0  0  0  0  0  0  0  0  0
  -20.4965    0.5236   28.3347 O   0  0  0  0  0  0  0  0  0  0  0  0
  -25.8774    1.2344   31.8142 C   0  0  0  0  0  0  0  0  0  0  0  0
  -26.3312    1.4364   32.9009 C   0  0  0  0  0  0  0  0  0  0  0  0
  -27.2361    2.4824   33.1613 C   0  0  0  0  0  0  0  0  0  0  0  0
  -27.8016    2.7107   34.4496 C   0  0  0  0  0  0  0  0  0  0  0  0
  -27.5085    1.7964   35.4327 C   0  0  0  0  0  0  0  0  0  0  0  0
  -26.6626    0.7409   35.2297 C   0  0  0  0  0  0  0  0  0  0  0  0
  -26.0711    0.5515   33.9820 C   0  0  0  0  0  0  0  0  0  0  0  0
  -24.7537    1.8596   31.4538 O   0  0  0  0  0  0  0  0  0  0  0  0
  -25.1970   -0.5860   33.7756 C   0  0  0  0  0  0  0  0  0  0  0  0
  -24.5555   -1.0487   34.7128 O   0  0  0  0  0  0  0  0  0  0  0  0
  -25.1305   -1.1238   32.6242 O   0  0  0  0  0  0  0  0  0  0  0  0
  2  5  1  0
  5  8  2  0
  5  9  1  0
  4 10  1  0
 15 16  1  0
 16 17  1  0
 16 18  1  0
 16 19  1  0
 13 20  1  0
  6 21  1  0
 21 22  1  0
 21 28  2  0
 27 29  1  0
 29 30  2  0
 29 31  1  0
 22 23  2  0
 23 24  1  0
 24 25  2  0
 25 26  1  0
 26 27  2  0
 27 22  1  0
 10 11  2  0
 11 12  1  0
 12 13  2  0
 13 14  1  0
 14 15  2  0
 15 10  1  0
  1  2  2  0
  2  7  1  0
  7  6  2  0
  6  4  1  0
  4  3  2  0
  3  1  1  0
M  END

$$$$
