No_825-gen_results/8p0m/2024-11-27-11-27-31/
     RDKit          3D

 16 17  0  0  0  0  0  0  0  0999 V2000
  -28.0162   -0.8135   28.8779 C   0  0  0  0  0  0  0  0  0  0  0  0
  -28.4690   -0.7850   29.8287 C   0  0  0  0  0  0  0  0  0  0  0  0
  -26.5042   -0.7777   28.8766 C   0  0  0  0  0  0  0  0  0  0  0  0
  -25.8103   -0.8531   30.1028 C   0  0  0  0  0  0  0  0  0  0  0  0
  -27.9906   -0.8916   31.2257 C   0  0  0  0  0  0  0  0  0  0  0  0
  -26.6042   -0.8676   31.2652 C   0  0  0  0  0  0  0  0  0  0  0  0
  -30.0739   -0.8360   29.8615 C   0  0  0  0  0  0  0  0  0  0  0  0
  -30.5608   -0.4417   28.9417 O   0  0  0  0  0  0  0  0  0  0  0  0
  -30.7204   -0.8543   30.9949 F   0  0  0  0  0  0  0  0  0  0  0  0
  -24.3711   -0.8036   30.1344 C   0  0  0  0  0  0  0  0  0  0  0  0
  -23.6437   -1.4256   30.6731 C   0  0  0  0  0  0  0  0  0  0  0  0
  -23.7815    0.2846   29.2794 C   0  0  0  0  0  0  0  0  0  0  0  0
  -22.3899    0.3744   29.1493 C   0  0  0  0  0  0  0  0  0  0  0  0
  -22.1888   -1.4296   30.7214 C   0  0  0  0  0  0  0  0  0  0  0  0
  -21.6369   -0.5223   29.8597 C   0  0  0  0  0  0  0  0  0  0  0  0
  -21.7493    1.5296   28.0762 Cl  0  0  0  0  0  0  0  0  0  0  0  0
  2  7  1  0
  7  8  2  0
  7  9  1  0
  4 10  1  0
 13 16  1  0
 10 11  2  0
 11 14  1  0
 14 15  2  0
 15 13  1  0
 13 12  2  0
 12 10  1  0
  1  2  2  0
  2  5  1  0
  5  6  2  0
  6  4  1  0
  4  3  2  0
  3  1  1  0
M  END

$$$$
