No_859-gen_results/8p0m/2024-11-27-11-27-31/
     RDKit          3D

 31 34  0  0  0  0  0  0  0  0999 V2000
  -28.0162   -0.8135   28.8779 C   0  0  0  0  0  0  0  0  0  0  0  0
  -27.0636   -0.1189   28.6079 C   0  0  0  0  0  0  0  0  0  0  0  0
  -26.9716    0.7139   27.5060 C   0  0  0  0  0  0  0  0  0  0  0  0
  -28.1053    0.7744   26.6421 C   0  0  0  0  0  0  0  0  0  0  0  0
  -29.2041    0.1179   27.0477 C   0  0  0  0  0  0  0  0  0  0  0  0
  -30.3488    0.2568   26.2203 C   0  0  0  0  0  0  0  0  0  0  0  0
  -29.1817   -0.6758   28.1173 C   0  0  0  0  0  0  0  0  0  0  0  0
  -30.3285   -0.0553   25.0162 O   0  0  0  0  0  0  0  0  0  0  0  0
  -31.5408    0.4942   26.7257 O   0  0  0  0  0  0  0  0  0  0  0  0
  -25.5690    1.2623   27.2745 C   0  0  0  0  0  0  0  0  0  0  0  0
  -25.1492    2.2903   28.0592 C   0  0  0  0  0  0  0  0  0  0  0  0
  -23.8360    2.8067   27.8103 C   0  0  0  0  0  0  0  0  0  0  0  0
  -23.0309    2.2348   26.8172 C   0  0  0  0  0  0  0  0  0  0  0  0
  -24.6716    0.7602   26.3056 C   0  0  0  0  0  0  0  0  0  0  0  0
  -23.4584    1.2267   26.0712 C   0  0  0  0  0  0  0  0  0  0  0  0
  -28.0504   -1.6768   30.1077 C   0  0  0  0  0  0  0  0  0  0  0  0
  -26.9731   -2.2651   30.4835 N   0  0  0  0  0  0  0  0  0  0  0  0
  -29.1259   -1.9580   30.6345 O   0  0  0  0  0  0  0  0  0  0  0  0
  -27.9552    1.7009   25.4887 C   0  0  0  0  0  0  0  0  0  0  0  0
  -25.9030    2.9424   29.1701 C   0  0  0  0  0  0  0  0  0  0  0  0
  -25.7886    4.1740   29.3749 C   0  0  0  0  0  0  0  0  0  0  0  0
  -26.3532    4.7890   30.5641 C   0  0  0  0  0  0  0  0  0  0  0  0
  -27.1787    4.0194   31.3116 C   0  0  0  0  0  0  0  0  0  0  0  0
  -27.3423    2.6634   31.0556 C   0  0  0  0  0  0  0  0  0  0  0  0
  -26.6340    2.1350   30.0318 C   0  0  0  0  0  0  0  0  0  0  0  0
  -28.1734    1.8275   31.9453 C   0  0  0  0  0  0  0  0  0  0  0  0
  -27.6191    1.1930   32.9272 C   0  0  0  0  0  0  0  0  0  0  0  0
  -29.5474    1.7625   31.5857 C   0  0  0  0  0  0  0  0  0  0  0  0
  -28.2643    0.0738   33.5823 C   0  0  0  0  0  0  0  0  0  0  0  0
  -30.2756    0.7200   32.3258 C   0  0  0  0  0  0  0  0  0  0  0  0
  -29.6459   -0.0055   33.3298 C   0  0  0  0  0  0  0  0  0  0  0  0
  5  6  1  0
  6  8  2  0
  6  9  1  0
  3 10  1  0
  1 16  1  0
 16 17  1  0
 16 18  2  0
  4 19  1  0
 11 20  1  0
 24 26  1  0
 26 27  2  0
 27 29  1  0
 29 31  2  0
 31 30  1  0
 30 28  2  0
 28 26  1  0
  1  2  2  0
  2  3  1  0
  3  4  2  0
  4  5  1  0
  5  7  2  0
  7  1  1  0
 10 11  1  0
 11 12  2  0
 12 13  1  0
 13 15  2  0
 15 14  1  0
 14 10  2  0
 20 21  2  0
 21 22  1  0
 22 23  2  0
 23 24  1  0
 24 25  2  0
 25 20  1  0
M  END

$$$$
