No_818-gen_results/8p0m/2024-11-27-11-27-31/
     RDKit          3D

 27 28  0  0  0  0  0  0  0  0999 V2000
  -28.0162   -0.8135   28.8779 C   0  0  0  0  0  0  0  0  0  0  0  0
  -27.0636   -0.1189   28.6079 C   0  0  0  0  0  0  0  0  0  0  0  0
  -25.7647   -0.3897   29.0360 C   0  0  0  0  0  0  0  0  0  0  0  0
  -25.5296   -1.5302   29.9014 C   0  0  0  0  0  0  0  0  0  0  0  0
  -24.3236   -1.9076   30.4324 C   0  0  0  0  0  0  0  0  0  0  0  0
  -27.9274   -1.9227   29.7902 C   0  0  0  0  0  0  0  0  0  0  0  0
  -26.6914   -2.2806   30.2948 C   0  0  0  0  0  0  0  0  0  0  0  0
  -23.4089   -2.4024   29.6212 N   0  0  0  0  0  0  0  0  0  0  0  0
  -27.1474    1.2933   27.5826 Cl  0  0  0  0  0  0  0  0  0  0  0  0
  -24.0158   -1.4889   31.5973 O   0  0  0  0  0  0  0  0  0  0  0  0
  -29.2983   -2.8039   30.2941 Cl  0  0  0  0  0  0  0  0  0  0  0  0
  -24.6460    0.2674   28.6493 F   0  0  0  0  0  0  0  0  0  0  0  0
  -29.2880   -0.3426   28.4137 O   0  0  0  0  0  0  0  0  0  0  0  0
  -29.7874    0.8087   28.8036 C   0  0  0  0  0  0  0  0  0  0  0  0
  -29.8277    1.1205   29.9396 C   0  0  0  0  0  0  0  0  0  0  0  0
  -30.4473    2.4028   30.3861 C   0  0  0  0  0  0  0  0  0  0  0  0
  -31.0506    3.1510   29.3621 C   0  0  0  0  0  0  0  0  0  0  0  0
  -30.3983    1.5573   27.7415 C   0  0  0  0  0  0  0  0  0  0  0  0
  -31.0204    2.7401   28.0600 C   0  0  0  0  0  0  0  0  0  0  0  0
  -31.8593    4.6300   29.8068 Cl  0  0  0  0  0  0  0  0  0  0  0  0
  -30.3658    1.1241   26.3545 C   0  0  0  0  0  0  0  0  0  0  0  0
  -31.2877    0.1727   25.6652 Cl  0  0  0  0  0  0  0  0  0  0  0  0
  -29.3437    1.7514   25.5371 C   0  0  0  0  0  0  0  0  0  0  0  0
  -28.7528    0.9989   24.4997 C   0  0  0  0  0  0  0  0  0  0  0  0
  -27.7762   -0.0473   24.8741 C   0  0  0  0  0  0  0  0  0  0  0  0
  -26.4854    0.3676   25.2950 C   0  0  0  0  0  0  0  0  0  0  0  0
  -26.0295    1.3215   25.6714 C   0  0  0  0  0  0  0  0  0  0  0  0
  4  5  1  0
  5  8  1  0
  2  9  1  0
  5 10  2  0
  6 11  1  0
  3 12  1  0
  1 13  1  0
 13 14  1  0
 17 20  1  0
 18 21  1  0
 21 22  1  0
 21 23  1  0
 23 24  1  0
 24 25  1  0
 25 26  1  0
 26 27  2  0
 14 15  2  0
 15 16  1  0
 16 17  2  0
 17 19  1  0
 19 18  2  0
 18 14  1  0
  1  2  2  0
  2  3  1  0
  3  4  2  0
  4  7  1  0
  7  6  2  0
  6  1  1  0
M  END

$$$$
