No_896-gen_results/8p0m/2024-11-27-11-27-31/
     RDKit          3D

 35 36  0  0  0  0  0  0  0  0999 V2000
  -28.0162   -0.8135   28.8779 C   0  0  0  0  0  0  0  0  0  0  0  0
  -27.0636   -0.1190   28.6079 C   0  0  0  0  0  0  0  0  0  0  0  0
  -26.8756    1.1325   28.9134 C   0  0  0  0  0  0  0  0  0  0  0  0
  -25.6883    1.9515   28.5672 C   0  0  0  0  0  0  0  0  0  0  0  0
  -24.6394    1.2834   27.8753 C   0  0  0  0  0  0  0  0  0  0  0  0
  -24.8068   -0.0513   27.6040 C   0  0  0  0  0  0  0  0  0  0  0  0
  -25.9019   -0.7670   27.9511 C   0  0  0  0  0  0  0  0  0  0  0  0
  -28.7202   -0.6024   30.0461 N   0  0  0  0  0  0  0  0  0  0  0  0
  -23.4559    1.9816   27.4642 C   0  0  0  0  0  0  0  0  0  0  0  0
  -23.1545    2.6438   26.6226 N   0  0  0  0  0  0  0  0  0  0  0  0
  -22.2712    1.6389   28.3162 N   0  0  0  0  0  0  0  0  0  0  0  0
  -29.4490   -0.9184   30.6943 C   0  0  0  0  0  0  0  0  0  0  0  0
  -30.1565   -2.2071   30.3997 C   0  0  0  0  0  0  0  0  0  0  0  0
  -31.0863   -2.0679   29.6819 N   0  0  0  0  0  0  0  0  0  0  0  0
  -29.7247   -3.3188   30.8528 O   0  0  0  0  0  0  0  0  0  0  0  0
  -31.8576   -3.2191   29.1741 C   0  0  0  0  0  0  0  0  0  0  0  0
  -29.8658   -0.3608   32.0449 C   0  0  0  0  0  0  0  0  0  0  0  0
  -22.1542    0.6699   29.2087 C   0  0  0  0  0  0  0  0  0  0  0  0
  -29.5519    0.6405   32.2629 O   0  0  0  0  0  0  0  0  0  0  0  0
  -30.6327   -1.1323   32.8402 N   0  0  0  0  0  0  0  0  0  0  0  0
  -31.0297   -0.6990   33.9595 C   0  0  0  0  0  0  0  0  0  0  0  0
  -31.8331   -4.2771   29.5274 C   0  0  0  0  0  0  0  0  0  0  0  0
  -32.7197   -2.7493   28.0434 C   0  0  0  0  0  0  0  0  0  0  0  0
  -32.3775   -5.1675   29.0560 C   0  0  0  0  0  0  0  0  0  0  0  0
  -32.7831   -1.4190   27.5065 C   0  0  0  0  0  0  0  0  0  0  0  0
  -33.2473   -5.0421   27.8862 C   0  0  0  0  0  0  0  0  0  0  0  0
  -33.3518   -3.8481   27.4571 C   0  0  0  0  0  0  0  0  0  0  0  0
  -32.0818   -0.8473   26.8472 C   0  0  0  0  0  0  0  0  0  0  0  0
  -31.6629    0.0364   26.1419 C   0  0  0  0  0  0  0  0  0  0  0  0
  -30.9230    0.8644   25.4470 C   0  0  0  0  0  0  0  0  0  0  0  0
  -30.1302    0.4683   24.7019 O   0  0  0  0  0  0  0  0  0  0  0  0
  -30.8702    2.2086   25.9100 N   0  0  0  0  0  0  0  0  0  0  0  0
  -25.5244    3.3562   28.9431 C   0  0  0  0  0  0  0  0  0  0  0  0
  -25.6279    4.1829   28.0836 O   0  0  0  0  0  0  0  0  0  0  0  0
  -25.7083    3.6942   30.2411 O   0  0  0  0  0  0  0  0  0  0  0  0
  1  2  2  3
  2  3  1  0
  3  4  1  0
  4  5  1  0
  5  6  1  0
  2  7  1  0
  6  7  1  0
  1  8  1  0
  5  9  1  0
  9 10  2  0
  9 11  1  0
  8 12  2  3
 12 13  1  0
 13 14  1  0
 13 15  2  0
 14 16  1  0
 12 17  1  0
 11 18  1  0
 17 19  2  0
 17 20  1  0
 20 21  2  0
 23 25  1  0
 25 28  3  0
 28 29  1  0
 29 30  1  0
 30 31  2  0
 30 32  1  0
  4 33  1  0
 33 34  2  0
 33 35  1  0
 16 22  2  0
 22 24  1  0
 24 26  2  0
 26 27  1  0
 27 23  2  0
 23 16  1  0
M  END

$$$$
