No_898-gen_results/8p0m/2024-11-27-11-27-31/
     RDKit          3D

 27 29  0  0  0  0  0  0  0  0999 V2000
  -28.0162   -0.8135   28.8779 C   0  0  0  0  0  0  0  0  0  0  0  0
  -27.0636   -0.1190   28.6079 C   0  0  0  0  0  0  0  0  0  0  0  0
  -25.7923   -0.4302   29.0761 C   0  0  0  0  0  0  0  0  0  0  0  0
  -24.5456    0.3494   28.8225 C   0  0  0  0  0  0  0  0  0  0  0  0
  -23.2409    0.0217   29.3323 C   0  0  0  0  0  0  0  0  0  0  0  0
  -27.8820   -1.8995   29.8633 C   0  0  0  0  0  0  0  0  0  0  0  0
  -26.6706   -2.3272   30.3212 C   0  0  0  0  0  0  0  0  0  0  0  0
  -25.5433   -1.5852   29.9316 C   0  0  0  0  0  0  0  0  0  0  0  0
  -22.1918    0.8302   29.0004 C   0  0  0  0  0  0  0  0  0  0  0  0
  -22.1472    1.7783   28.0287 C   0  0  0  0  0  0  0  0  0  0  0  0
  -24.5322    1.3987   27.8163 C   0  0  0  0  0  0  0  0  0  0  0  0
  -23.3620    2.0694   27.4607 C   0  0  0  0  0  0  0  0  0  0  0  0
  -29.0617   -2.7252   30.3001 C   0  0  0  0  0  0  0  0  0  0  0  0
  -29.0044   -3.9353   30.2807 O   0  0  0  0  0  0  0  0  0  0  0  0
  -30.1563   -2.1003   30.7402 N   0  0  0  0  0  0  0  0  0  0  0  0
  -31.3157   -2.8766   31.1792 C   0  0  0  0  0  0  0  0  0  0  0  0
  -30.2485   -0.6680   30.8912 C   0  0  0  0  0  0  0  0  0  0  0  0
  -30.4081   -0.2702   32.2815 C   0  0  0  0  0  0  0  0  0  0  0  0
  -29.9701    0.7760   32.4447 F   0  0  0  0  0  0  0  0  0  0  0  0
  -31.7798   -0.2086   32.4984 F   0  0  0  0  0  0  0  0  0  0  0  0
  -29.8354   -1.1640   33.1536 F   0  0  0  0  0  0  0  0  0  0  0  0
  -31.3917   -0.0999   29.9764 C   0  0  0  0  0  0  0  0  0  0  0  0
  -31.1947   -0.4068   28.6205 C   0  0  0  0  0  0  0  0  0  0  0  0
  -32.2818    0.1569   27.8101 C   0  0  0  0  0  0  0  0  0  0  0  0
  -33.1758    0.8516   28.4573 C   0  0  0  0  0  0  0  0  0  0  0  0
  -33.2887    1.1667   29.7701 C   0  0  0  0  0  0  0  0  0  0  0  0
  -32.3140    0.6795   30.5291 C   0  0  0  0  0  0  0  0  0  0  0  0
  3  4  1  0
  6 13  1  0
 13 14  2  0
 13 15  1  0
 15 16  1  0
 15 17  1  0
 17 18  1  0
 18 19  1  0
 18 20  1  0
 18 21  1  0
 17 22  1  0
 22 23  2  0
 23 24  1  0
 24 25  2  0
 25 26  1  0
 26 27  2  0
 27 22  1  0
  1  2  2  0
  2  3  1  0
  3  8  2  0
  8  7  1  0
  7  6  2  0
  6  1  1  0
  4  5  2  0
  5  9  1  0
  9 10  2  0
 10 12  1  0
 12 11  2  0
 11  4  1  0
M  END

$$$$
