No_806-gen_results/8p0m/2024-11-27-11-27-31/
     RDKit          3D

 11 11  0  0  0  0  0  0  0  0999 V2000
  -28.1229   -1.3353   28.4874 O   0  0  0  0  0  0  0  0  0  0  0  0
  -27.0637   -0.8242   28.8687 C   0  0  0  0  0  0  0  0  0  0  0  0
  -25.9773   -1.1378   28.8137 N   0  0  0  0  0  0  0  0  0  0  0  0
  -24.7669   -0.3464   29.1634 C   0  0  0  0  0  0  0  0  0  0  0  0
  -27.1956    0.6551   29.5913 C   0  0  0  0  0  0  0  0  0  0  0  0
  -23.4251   -0.8635   29.0433 C   0  0  0  0  0  0  0  0  0  0  0  0
  -24.9050    0.9759   29.6750 C   0  0  0  0  0  0  0  0  0  0  0  0
  -26.2030    1.4059   29.8317 C   0  0  0  0  0  0  0  0  0  0  0  0
  -22.3197    0.0108   29.0551 C   0  0  0  0  0  0  0  0  0  0  0  0
  -22.5350    1.3588   29.3603 C   0  0  0  0  0  0  0  0  0  0  0  0
  -23.7405    1.8269   29.7672 C   0  0  0  0  0  0  0  0  0  0  0  0
  1  2  2  0
  2  3  1  0
  3  4  1  0
  2  5  1  0
  4  6  1  0
  4  7  1  0
  5  8  1  0
  6  9  2  3
  9 10  1  0
 10 11  2  0
  7  8  1  0
M  END

$$$$
