No_883-gen_results/8p0m/2024-11-27-11-27-31/
     RDKit          3D

 19 22  0  0  0  0  0  0  0  0999 V2000
  -28.0162   -0.8135   28.8779 C   0  0  0  0  0  0  0  0  0  0  0  0
  -27.0636   -0.1189   28.6079 C   0  0  0  0  0  0  0  0  0  0  0  0
  -25.7923   -0.4302   29.0761 C   0  0  0  0  0  0  0  0  0  0  0  0
  -24.5456    0.3494   28.8225 C   0  0  0  0  0  0  0  0  0  0  0  0
  -24.6586    1.4196   27.8878 C   0  0  0  0  0  0  0  0  0  0  0  0
  -23.5403    2.1791   27.5500 C   0  0  0  0  0  0  0  0  0  0  0  0
  -22.2925    1.7428   28.0473 C   0  0  0  0  0  0  0  0  0  0  0  0
  -22.1712    0.7079   28.9284 C   0  0  0  0  0  0  0  0  0  0  0  0
  -23.3345   -0.0624   29.3081 C   0  0  0  0  0  0  0  0  0  0  0  0
  -27.9466   -1.8823   29.8708 C   0  0  0  0  0  0  0  0  0  0  0  0
  -26.7159   -2.3287   30.3060 C   0  0  0  0  0  0  0  0  0  0  0  0
  -25.5921   -1.5643   29.9672 C   0  0  0  0  0  0  0  0  0  0  0  0
  -29.3178   -2.8004   30.2932 Cl  0  0  0  0  0  0  0  0  0  0  0  0
  -23.6390    3.1741   26.6982 O   0  0  0  0  0  0  0  0  0  0  0  0
  -24.9691    3.1520   26.0636 C   0  0  0  0  0  0  0  0  0  0  0  0
  -25.7990    1.7465   27.2574 C   0  0  0  0  0  0  0  0  0  0  0  0
  -25.9203    2.7614   26.3566 C   0  0  0  0  0  0  0  0  0  0  0  0
  -27.0585    1.0156   27.6772 C   0  0  0  0  0  0  0  0  0  0  0  0
  -28.1867    1.3021   27.1523 O   0  0  0  0  0  0  0  0  0  0  0  0
  3  4  1  0
 10 13  1  0
  6 14  1  0
 14 15  1  0
  5 16  1  0
 15 17  2  0
 16 17  2  0
  2 18  1  0
 16 18  1  0
 18 19  2  0
  4  9  2  0
  9  8  1  0
  8  7  2  0
  7  6  1  0
  6  5  2  0
  5  4  1  0
  1  2  2  0
  2  3  1  0
  3 12  2  0
 12 11  1  0
 11 10  2  0
 10  1  1  0
M  END

$$$$
