No_838-gen_results/8p0m/2024-11-27-11-27-31/
     RDKit          3D

 28 31  0  0  0  0  0  0  0  0999 V2000
  -28.0162   -0.8135   28.8779 C   0  0  0  0  0  0  0  0  0  0  0  0
  -27.0636   -0.1190   28.6079 C   0  0  0  0  0  0  0  0  0  0  0  0
  -25.7923   -0.4302   29.0761 C   0  0  0  0  0  0  0  0  0  0  0  0
  -25.5756   -1.5654   29.9363 C   0  0  0  0  0  0  0  0  0  0  0  0
  -26.7354   -2.3004   30.2173 C   0  0  0  0  0  0  0  0  0  0  0  0
  -27.9184   -1.9537   29.7629 C   0  0  0  0  0  0  0  0  0  0  0  0
  -27.1057    1.1023   27.7593 C   0  0  0  0  0  0  0  0  0  0  0  0
  -26.1219    1.4820   27.0232 C   0  0  0  0  0  0  0  0  0  0  0  0
  -24.7142    1.1299   27.4889 C   0  0  0  0  0  0  0  0  0  0  0  0
  -24.5718    0.0966   28.4066 C   0  0  0  0  0  0  0  0  0  0  0  0
  -23.5495    1.7790   26.9027 C   0  0  0  0  0  0  0  0  0  0  0  0
  -22.4535    1.9030   27.6175 N   0  0  0  0  0  0  0  0  0  0  0  0
  -23.6400    2.4972   25.8076 N   0  0  0  0  0  0  0  0  0  0  0  0
  -29.0859   -2.7164   30.2557 C   0  0  0  0  0  0  0  0  0  0  0  0
  -29.0259   -4.0199   30.4943 N   0  0  0  0  0  0  0  0  0  0  0  0
  -30.2231   -2.1791   30.3672 O   0  0  0  0  0  0  0  0  0  0  0  0
  -30.0774   -4.9180   30.8446 C   0  0  0  0  0  0  0  0  0  0  0  0
  -30.8969   -4.4723   31.6653 C   0  0  0  0  0  0  0  0  0  0  0  0
  -31.9194   -5.3821   32.0796 C   0  0  0  0  0  0  0  0  0  0  0  0
  -31.8928   -6.7185   31.6181 C   0  0  0  0  0  0  0  0  0  0  0  0
  -30.9029   -7.1122   30.7284 C   0  0  0  0  0  0  0  0  0  0  0  0
  -29.9516   -6.2161   30.3826 C   0  0  0  0  0  0  0  0  0  0  0  0
  -22.2365    1.3372   28.8359 C   0  0  0  0  0  0  0  0  0  0  0  0
  -23.2217    0.3163   29.2389 C   0  0  0  0  0  0  0  0  0  0  0  0
  -28.3321    1.5023   27.4544 F   0  0  0  0  0  0  0  0  0  0  0  0
  -32.9498   -7.7073   31.9997 C   0  0  0  0  0  0  0  0  0  0  0  0
  -32.9194   -8.7859   31.6503 C   0  0  0  0  0  0  0  0  0  0  0  0
  -31.8357   -9.3017   30.7126 C   0  0  0  0  0  0  0  0  0  0  0  0
 11 13  1  0
  6 14  1  0
 14 15  1  0
 14 16  2  0
 15 17  1  0
  7 25  1  0
 20 26  1  0
 26 27  2  3
 27 28  1  0
 17 18  2  0
 18 19  1  0
 19 20  2  0
 20 21  1  0
 21 22  2  0
 22 17  1  0
  1  2  2  0
  3  4  2  0
  4  5  1  0
  5  6  2  0
  6  1  1  0
 10 24  2  0
 24 23  1  0
 23 12  2  0
 12 11  1  0
 11  9  2  0
  2  3  1  0
  3 10  1  0
 10  9  1  0
  9  8  1  0
  8  7  2  0
  7  2  1  0
M  END

$$$$
