No_808-gen_results/8p0m/2024-11-27-11-27-31/
     RDKit          3D

 11 12  0  0  0  0  0  0  0  0999 V2000
  -28.0162   -0.8135   28.8779 C   0  0  0  0  0  0  0  0  0  0  0  0
  -28.4690   -0.7850   29.8287 C   0  0  0  0  0  0  0  0  0  0  0  0
  -28.1960    0.3478   28.0550 C   0  0  0  0  0  0  0  0  0  0  0  0
  -27.4421    0.5100   26.7946 C   0  0  0  0  0  0  0  0  0  0  0  0
  -26.1689   -0.0794   26.6787 C   0  0  0  0  0  0  0  0  0  0  0  0
  -25.7312   -0.9607   27.6875 C   0  0  0  0  0  0  0  0  0  0  0  0
  -26.1461   -0.9085   28.7825 C   0  0  0  0  0  0  0  0  0  0  0  0
  -28.2086   -1.9420   30.8065 C   0  0  0  0  0  0  0  0  0  0  0  0
  -27.2323   -2.6748   30.5660 N   0  0  0  0  0  0  0  0  0  0  0  0
  -26.0201   -2.1863   29.9345 C   0  0  0  0  0  0  0  0  0  0  0  0
  -27.9231    1.5062   25.5223 Cl  0  0  0  0  0  0  0  0  0  0  0  0
  1  3  1  0
  3  4  1  0
  4  5  1  0
  5  6  1  0
  6  7  1  0
  4 11  1  0
  1  2  2  0
  2  8  1  0
  8  9  2  0
  9 10  1  0
 10  7  2  0
  7  1  1  0
M  END

$$$$
