No_893-gen_results/8p0m/2024-11-27-11-27-31/
     RDKit          3D

 22 24  0  0  0  0  0  0  0  0999 V2000
  -28.0162   -0.8135   28.8779 C   0  0  0  0  0  0  0  0  0  0  0  0
  -28.4690   -0.7850   29.8287 C   0  0  0  0  0  0  0  0  0  0  0  0
  -28.1960    0.3478   28.0550 C   0  0  0  0  0  0  0  0  0  0  0  0
  -29.0191    1.3501   28.3782 C   0  0  0  0  0  0  0  0  0  0  0  0
  -29.4107    0.1803   30.3782 C   0  0  0  0  0  0  0  0  0  0  0  0
  -29.6059    1.2495   29.6193 C   0  0  0  0  0  0  0  0  0  0  0  0
  -27.4597    0.3802   26.7091 C   0  0  0  0  0  0  0  0  0  0  0  0
  -26.4659    1.4084   26.5648 C   0  0  0  0  0  0  0  0  0  0  0  0
  -25.2424    1.0667   26.0698 C   0  0  0  0  0  0  0  0  0  0  0  0
  -24.1161    1.3938   26.4793 C   0  0  0  0  0  0  0  0  0  0  0  0
  -22.8021    0.9680   26.2312 C   0  0  0  0  0  0  0  0  0  0  0  0
  -24.1693    2.5711   27.5773 C   0  0  0  0  0  0  0  0  0  0  0  0
  -25.3685    3.1443   27.9019 C   0  0  0  0  0  0  0  0  0  0  0  0
  -26.5855    2.4763   27.5876 C   0  0  0  0  0  0  0  0  0  0  0  0
  -21.8574    1.0622   27.3693 C   0  0  0  0  0  0  0  0  0  0  0  0
  -21.8253    0.2909   28.5380 C   0  0  0  0  0  0  0  0  0  0  0  0
  -22.9496    0.1744   29.3466 C   0  0  0  0  0  0  0  0  0  0  0  0
  -23.1607    0.8157   30.2185 C   0  0  0  0  0  0  0  0  0  0  0  0
  -24.3581    0.6783   31.1805 C   0  0  0  0  0  0  0  0  0  0  0  0
  -25.0444   -0.4824   30.9456 C   0  0  0  0  0  0  0  0  0  0  0  0
  -24.7594   -1.3423   29.9367 C   0  0  0  0  0  0  0  0  0  0  0  0
  -23.6313   -1.0857   29.1362 C   0  0  0  0  0  0  0  0  0  0  0  0
  3  7  1  0
  7  8  1  0
 10 11  1  0
 11 15  1  0
 15 16  1  0
 16 17  1  0
 17 18  2  0
 18 19  1  0
 19 20  2  0
 20 21  1  0
 21 22  2  0
 22 17  1  0
  8  9  2  0
  9 10  1  0
 10 12  2  0
 12 13  1  0
 13 14  2  0
 14  8  1  0
  1  2  2  0
  2  5  1  0
  5  6  2  0
  6  4  1  0
  4  3  2  0
  3  1  1  0
M  END

$$$$
