No_800-gen_results/8p0m/2024-11-27-11-27-31/
     RDKit          3D

 25 27  0  0  0  0  0  0  0  0999 V2000
  -28.0162   -0.8135   28.8779 C   0  0  0  0  0  0  0  0  0  0  0  0
  -27.0636   -0.1190   28.6079 C   0  0  0  0  0  0  0  0  0  0  0  0
  -26.9716    0.7139   27.5060 C   0  0  0  0  0  0  0  0  0  0  0  0
  -25.8205    1.4909   27.1160 C   0  0  0  0  0  0  0  0  0  0  0  0
  -24.6562    1.4242   27.9180 C   0  0  0  0  0  0  0  0  0  0  0  0
  -24.6847    0.5901   29.0659 C   0  0  0  0  0  0  0  0  0  0  0  0
  -25.8099   -0.1265   29.3338 C   0  0  0  0  0  0  0  0  0  0  0  0
  -28.7093   -0.4588   30.1754 C   0  0  0  0  0  0  0  0  0  0  0  0
  -29.4273   -1.3885   30.7420 O   0  0  0  0  0  0  0  0  0  0  0  0
  -23.4634    2.2046   27.5975 C   0  0  0  0  0  0  0  0  0  0  0  0
  -23.2711    2.7194   26.5064 O   0  0  0  0  0  0  0  0  0  0  0  0
  -22.3477    1.9828   28.3366 O   0  0  0  0  0  0  0  0  0  0  0  0
  -28.2250    0.3867   30.9157 O   0  0  0  0  0  0  0  0  0  0  0  0
  -28.2566    0.8252   26.4137 Cl  0  0  0  0  0  0  0  0  0  0  0  0
  -23.4903    0.4329   29.9154 C   0  0  0  0  0  0  0  0  0  0  0  0
  -22.5454   -0.0238   29.7760 C   0  0  0  0  0  0  0  0  0  0  0  0
  -21.7225   -0.8438   30.6360 C   0  0  0  0  0  0  0  0  0  0  0  0
  -21.5531    0.5900   28.6861 C   0  0  0  0  0  0  0  0  0  0  0  0
  -22.2964   -1.1282   31.8164 O   0  0  0  0  0  0  0  0  0  0  0  0
  -23.7230   -1.1824   32.0051 C   0  0  0  0  0  0  0  0  0  0  0  0
  -24.0365    0.5272   31.4855 C   0  0  0  0  0  0  0  0  0  0  0  0
  -30.1116   -1.3664   31.5934 C   0  0  0  0  0  0  0  0  0  0  0  0
  -30.5260   -2.4241   32.1172 C   0  0  0  0  0  0  0  0  0  0  0  0
  -30.1834   -3.6344   31.6842 C   0  0  0  0  0  0  0  0  0  0  0  0
  -29.2247   -3.6467   30.6509 C   0  0  0  0  0  0  0  0  0  0  0  0
  1  2  2  3
  2  3  1  0
  3  4  1  0
  4  5  1  0
  5  6  1  0
  2  7  1  0
  6  7  1  0
  1  8  1  0
  8  9  1  0
  5 10  1  0
 10 11  2  0
 10 12  1  0
  8 13  2  0
  3 14  1  0
  6 15  1  0
 15 16  2  0
 16 17  1  0
 12 18  1  0
 16 18  1  0
 17 19  1  0
 19 20  1  0
 15 21  1  0
 20 21  1  0
  9 22  1  0
 22 23  2  3
 23 24  1  0
 24 25  2  0
M  END

$$$$
