No_837-gen_results/8p0m/2024-11-27-11-27-31/
     RDKit          3D

 25 27  0  0  0  0  0  0  0  0999 V2000
  -28.1229   -1.3353   28.4874 O   0  0  0  0  0  0  0  0  0  0  0  0
  -28.5208   -0.4363   29.0779 C   0  0  0  0  0  0  0  0  0  0  0  0
  -29.6977    0.0507   28.9764 C   0  0  0  0  0  0  0  0  0  0  0  0
  -27.5405    0.1756   30.0054 N   0  0  0  0  0  0  0  0  0  0  0  0
  -27.8890    1.2664   30.8176 C   0  0  0  0  0  0  0  0  0  0  0  0
  -30.5287   -0.3224   28.2067 N   0  0  0  0  0  0  0  0  0  0  0  0
  -30.0828    1.2815   29.8160 C   0  0  0  0  0  0  0  0  0  0  0  0
  -29.1257    1.7753   30.7081 C   0  0  0  0  0  0  0  0  0  0  0  0
  -26.2093   -0.4513   30.1585 C   0  0  0  0  0  0  0  0  0  0  0  0
  -25.9113   -0.9549   31.1676 C   0  0  0  0  0  0  0  0  0  0  0  0
  -25.9874   -0.5188   32.2052 C   0  0  0  0  0  0  0  0  0  0  0  0
  -25.3783    0.7175   32.6251 C   0  0  0  0  0  0  0  0  0  0  0  0
  -24.4592    1.2968   31.7532 C   0  0  0  0  0  0  0  0  0  0  0  0
  -25.2030    0.6710   29.9318 C   0  0  0  0  0  0  0  0  0  0  0  0
  -24.5184    1.0430   30.4863 C   0  0  0  0  0  0  0  0  0  0  0  0
  -29.4665    2.9231   31.5349 C   0  0  0  0  0  0  0  0  0  0  0  0
  -30.3238    3.4757   31.7479 C   0  0  0  0  0  0  0  0  0  0  0  0
  -30.5323    4.6368   32.6255 C   0  0  0  0  0  0  0  0  0  0  0  0
  -29.4054    5.0726   33.2850 C   0  0  0  0  0  0  0  0  0  0  0  0
  -28.2155    3.4541   32.3175 C   0  0  0  0  0  0  0  0  0  0  0  0
  -28.2395    4.4704   33.1088 C   0  0  0  0  0  0  0  0  0  0  0  0
  -31.8535    0.0579   28.0657 C   0  0  0  0  0  0  0  0  0  0  0  0
  -32.6236   -0.4093   27.3559 C   0  0  0  0  0  0  0  0  0  0  0  0
  -33.9138   -0.0992   27.1782 C   0  0  0  0  0  0  0  0  0  0  0  0
  -34.8117   -0.7134   26.3290 C   0  0  0  0  0  0  0  0  0  0  0  0
  1  2  2  0
  2  3  1  0
  2  4  1  0
  4  5  1  0
  3  6  1  0
  3  7  1  0
  5  8  1  0
  7  8  1  0
  4  9  1  0
  9 10  2  0
 10 11  1  0
 11 12  2  0
 12 13  1  0
  9 14  1  0
 13 15  2  0
 14 15  2  0
  8 16  1  0
  6 22  1  0
 22 23  1  0
 23 24  2  3
 24 25  1  0
 16 17  2  0
 17 18  1  0
 18 19  2  0
 19 21  1  0
 21 20  2  0
 20 16  1  0
M  END

$$$$
