No_830-gen_results/8p0m/2024-11-27-11-27-31/
     RDKit          3D

  6  5  0  0  0  0  0  0  0  0999 V2000
  -27.9505   -0.5786   29.0402 P   0  0  0  0  0  0  0  0  0  0  0  0
  -27.2401    0.0613   28.4283 O   0  0  0  0  0  0  0  0  0  0  0  0
  -29.3549   -0.6223   28.6906 O   0  0  0  0  0  0  0  0  0  0  0  0
  -27.4425   -2.0908   29.1784 O   0  0  0  0  0  0  0  0  0  0  0  0
  -28.0195   -0.6617   30.6548 O   0  0  0  0  0  0  0  0  0  0  0  0
  -26.6211   -2.5317   30.2894 C   0  0  0  0  0  0  0  0  0  0  0  0
  1  2  2  0
  1  3  1  0
  1  4  1  0
  1  5  1  0
  4  6  1  0
M  END

$$$$
