No_867-gen_results/8p0m/2024-11-27-11-27-31/
     RDKit          3D

 17 19  0  0  0  0  0  0  0  0999 V2000
  -28.0162   -0.8135   28.8779 C   0  0  0  0  0  0  0  0  0  0  0  0
  -28.4690   -0.7850   29.8287 C   0  0  0  0  0  0  0  0  0  0  0  0
  -26.5042   -0.7777   28.8766 C   0  0  0  0  0  0  0  0  0  0  0  0
  -25.7622   -0.0022   27.9705 C   0  0  0  0  0  0  0  0  0  0  0  0
  -24.3914    0.1198   28.1381 C   0  0  0  0  0  0  0  0  0  0  0  0
  -23.7115   -0.7200   29.0863 C   0  0  0  0  0  0  0  0  0  0  0  0
  -24.4207   -1.5358   29.9161 C   0  0  0  0  0  0  0  0  0  0  0  0
  -25.8017   -1.5837   29.8123 C   0  0  0  0  0  0  0  0  0  0  0  0
  -29.9399   -0.6147   29.9523 C   0  0  0  0  0  0  0  0  0  0  0  0
  -30.6905   -0.8119   31.1152 C   0  0  0  0  0  0  0  0  0  0  0  0
  -29.9733   -1.1111   32.3066 C   0  0  0  0  0  0  0  0  0  0  0  0
  -28.6328   -1.3415   32.3050 C   0  0  0  0  0  0  0  0  0  0  0  0
  -27.9322   -1.2471   31.2083 C   0  0  0  0  0  0  0  0  0  0  0  0
  -26.5010   -1.5221   31.0371 C   0  0  0  0  0  0  0  0  0  0  0  0
  -26.3253    0.6817   26.8505 C   0  0  0  0  0  0  0  0  0  0  0  0
  -25.6961    1.0790   25.7872 C   0  0  0  0  0  0  0  0  0  0  0  0
  -24.7101    1.2441   25.7154 C   0  0  0  0  0  0  0  0  0  0  0  0
  1  2  1  0
  1  3  1  0
  8 14  1  0
 13 14  1  0
  4 15  1  0
 15 16  2  3
 16 17  1  0
  3  4  2  0
  4  5  1  0
  5  6  2  0
  6  7  1  0
  7  8  2  0
  8  3  1  0
  2  9  2  0
  9 10  1  0
 10 11  2  0
 11 12  1  0
 12 13  2  0
 13  2  1  0
M  END

$$$$
