No_827-gen_results/8p0m/2024-11-27-11-27-31/
     RDKit          3D

 22 23  0  0  0  0  0  0  0  0999 V2000
  -28.0162   -0.8135   28.8779 C   0  0  0  0  0  0  0  0  0  0  0  0
  -28.4690   -0.7850   29.8287 C   0  0  0  0  0  0  0  0  0  0  0  0
  -27.0871    0.2903   28.6377 C   0  0  0  0  0  0  0  0  0  0  0  0
  -26.8317    1.2487   29.5869 C   0  0  0  0  0  0  0  0  0  0  0  0
  -28.3914    0.0801   31.0065 C   0  0  0  0  0  0  0  0  0  0  0  0
  -27.4940    1.1521   30.7841 C   0  0  0  0  0  0  0  0  0  0  0  0
  -26.3109    0.3918   27.3640 C   0  0  0  0  0  0  0  0  0  0  0  0
  -24.9686    0.2477   27.4806 C   0  0  0  0  0  0  0  0  0  0  0  0
  -24.2490   -0.0471   28.6523 C   0  0  0  0  0  0  0  0  0  0  0  0
  -22.8336    0.1271   28.6599 C   0  0  0  0  0  0  0  0  0  0  0  0
  -22.2217    1.0291   27.7525 C   0  0  0  0  0  0  0  0  0  0  0  0
  -22.9750    1.5276   26.6701 C   0  0  0  0  0  0  0  0  0  0  0  0
  -24.3609    1.2906   26.6528 C   0  0  0  0  0  0  0  0  0  0  0  0
  -26.9616    0.1976   26.1708 C   0  0  0  0  0  0  0  0  0  0  0  0
  -26.4738   -0.2887   25.3529 F   0  0  0  0  0  0  0  0  0  0  0  0
  -27.3819    1.4456   25.8465 F   0  0  0  0  0  0  0  0  0  0  0  0
  -28.2407   -0.3210   26.3481 F   0  0  0  0  0  0  0  0  0  0  0  0
  -20.9694    1.3351   27.8459 F   0  0  0  0  0  0  0  0  0  0  0  0
  -25.9336    2.3870   29.4652 C   0  0  0  0  0  0  0  0  0  0  0  0
  -26.5677    3.7425   29.4616 C   0  0  0  0  0  0  0  0  0  0  0  0
  -25.9440    4.6347   29.0734 O   0  0  0  0  0  0  0  0  0  0  0  0
  -27.5965    3.8593   30.1410 O   0  0  0  0  0  0  0  0  0  0  0  0
  3  7  1  0
  7 14  1  0
 14 15  1  0
 14 16  1  0
 14 17  1  0
 11 18  1  0
  4 19  1  0
 19 20  1  0
 20 21  2  0
 20 22  1  0
  7  8  1  0
  8  9  2  0
  9 10  1  0
 10 11  2  0
 11 12  1  0
 12 13  2  0
 13  8  1  0
  1  2  2  0
  2  5  1  0
  5  6  2  0
  6  4  1  0
  4  3  2  0
  3  1  1  0
M  END

$$$$
