No_879-gen_results/8p0m/2024-11-27-11-27-31/
     RDKit          3D

 13 14  0  0  0  0  0  0  0  0999 V2000
  -28.1229   -1.3353   28.4874 O   0  0  0  0  0  0  0  0  0  0  0  0
  -27.4806   -0.4044   28.7094 C   0  0  0  0  0  0  0  0  0  0  0  0
  -27.1904    0.2460   29.5268 C   0  0  0  0  0  0  0  0  0  0  0  0
  -26.6871   -0.0001   27.4423 N   0  0  0  0  0  0  0  0  0  0  0  0
  -26.3501    1.4331   29.7418 C   0  0  0  0  0  0  0  0  0  0  0  0
  -25.8445    1.0999   27.3990 C   0  0  0  0  0  0  0  0  0  0  0  0
  -25.6695    1.8265   28.6078 C   0  0  0  0  0  0  0  0  0  0  0  0
  -27.8616   -0.0980   30.9546 C   0  0  0  0  0  0  0  0  0  0  0  0
  -27.1932   -0.4313   31.8947 C   0  0  0  0  0  0  0  0  0  0  0  0
  -29.2792   -0.1585   30.8984 C   0  0  0  0  0  0  0  0  0  0  0  0
  -29.9489   -0.6609   32.0417 C   0  0  0  0  0  0  0  0  0  0  0  0
  -27.8129   -0.8457   33.1921 C   0  0  0  0  0  0  0  0  0  0  0  0
  -29.1828   -0.9359   33.2201 C   0  0  0  0  0  0  0  0  0  0  0  0
  1  2  2  0
  2  3  1  0
  2  4  1  0
  3  5  1  0
  6  7  1  0
  3  8  1  0
  5  7  1  0
  6  4  1  0
  8  9  2  0
  9 12  1  0
 12 13  2  0
 13 11  1  0
 11 10  2  0
 10  8  1  0
M  END

$$$$
