No_849-gen_results/8p0m/2024-11-27-11-27-31/
     RDKit          3D

 28 31  0  0  0  0  0  0  0  0999 V2000
  -28.0162   -0.8135   28.8779 C   0  0  0  0  0  0  0  0  0  0  0  0
  -27.0636   -0.1190   28.6079 C   0  0  0  0  0  0  0  0  0  0  0  0
  -26.9716    0.7139   27.5060 C   0  0  0  0  0  0  0  0  0  0  0  0
  -25.8205    1.4909   27.1160 C   0  0  0  0  0  0  0  0  0  0  0  0
  -24.6562    1.4242   27.9180 C   0  0  0  0  0  0  0  0  0  0  0  0
  -24.7114    0.5419   29.0507 C   0  0  0  0  0  0  0  0  0  0  0  0
  -25.8042   -0.2058   29.3881 C   0  0  0  0  0  0  0  0  0  0  0  0
  -28.0309   -1.5903   30.1490 C   0  0  0  0  0  0  0  0  0  0  0  0
  -26.8104   -1.7964   30.8511 C   0  0  0  0  0  0  0  0  0  0  0  0
  -25.6958   -1.0684   30.5035 C   0  0  0  0  0  0  0  0  0  0  0  0
  -28.0906    0.8796   26.5377 C   0  0  0  0  0  0  0  0  0  0  0  0
  -29.2470    0.9364   26.8550 C   0  0  0  0  0  0  0  0  0  0  0  0
  -29.5585    1.2819   28.2142 C   0  0  0  0  0  0  0  0  0  0  0  0
  -30.8881    1.7881   28.5531 C   0  0  0  0  0  0  0  0  0  0  0  0
  -31.5836    2.2976   27.5629 C   0  0  0  0  0  0  0  0  0  0  0  0
  -32.8449    2.7871   27.8555 C   0  0  0  0  0  0  0  0  0  0  0  0
  -33.6658    3.3363   26.8246 C   0  0  0  0  0  0  0  0  0  0  0  0
  -33.1132    3.2887   25.5017 C   0  0  0  0  0  0  0  0  0  0  0  0
  -31.8861    2.8229   25.2081 C   0  0  0  0  0  0  0  0  0  0  0  0
  -31.1140    2.3496   26.2616 C   0  0  0  0  0  0  0  0  0  0  0  0
  -29.9412    2.0493   25.9889 C   0  0  0  0  0  0  0  0  0  0  0  0
  -27.6216    0.4611   25.1915 C   0  0  0  0  0  0  0  0  0  0  0  0
  -29.2373   -2.3997   30.4941 C   0  0  0  0  0  0  0  0  0  0  0  0
  -29.2452   -3.5665   30.4493 O   0  0  0  0  0  0  0  0  0  0  0  0
  -30.4269   -1.7450   30.4323 O   0  0  0  0  0  0  0  0  0  0  0  0
  -23.4569    2.1547   27.5613 C   0  0  0  0  0  0  0  0  0  0  0  0
  -22.5396    2.1855   28.3713 O   0  0  0  0  0  0  0  0  0  0  0  0
  -23.4330    2.7780   26.4542 O   0  0  0  0  0  0  0  0  0  0  0  0
  3 11  1  0
 11 12  1  0
 11 22  1  0
  8 23  1  0
 23 24  2  0
 23 25  1  0
  5 26  1  0
 26 27  2  0
 26 28  1  0
 12 13  2  0
 13 14  1  0
 14 15  2  0
 20 21  2  0
 21 12  1  0
  2  3  1  0
  3  4  2  0
  4  5  1  0
  5  6  2  0
  6  7  1  0
 15 16  1  0
 16 17  2  0
 17 18  1  0
 18 19  2  0
 19 20  1  0
 20 15  1  0
  1  2  2  0
  2  7  1  0
  7 10  2  0
 10  9  1  0
  9  8  2  0
  8  1  1  0
M  END

$$$$
