No_826-gen_results/8p0m/2024-11-27-11-27-31/
     RDKit          3D

 29 32  0  0  0  0  0  0  0  0999 V2000
  -28.0162   -0.8135   28.8779 C   0  0  0  0  0  0  0  0  0  0  0  0
  -28.4690   -0.7850   29.8287 C   0  0  0  0  0  0  0  0  0  0  0  0
  -27.0871    0.2903   28.6377 C   0  0  0  0  0  0  0  0  0  0  0  0
  -26.0238    0.3644   29.2526 C   0  0  0  0  0  0  0  0  0  0  0  0
  -29.4161   -1.9279   30.1751 C   0  0  0  0  0  0  0  0  0  0  0  0
  -26.2326    0.1422   30.7730 C   0  0  0  0  0  0  0  0  0  0  0  0
  -27.3914   -0.7532   31.0134 C   0  0  0  0  0  0  0  0  0  0  0  0
  -29.9428   -1.9265   31.3600 O   0  0  0  0  0  0  0  0  0  0  0  0
  -29.3742    0.4687   30.1706 C   0  0  0  0  0  0  0  0  0  0  0  0
  -30.4234    0.3066   30.7033 C   0  0  0  0  0  0  0  0  0  0  0  0
  -30.8120   -0.8759   31.5067 C   0  0  0  0  0  0  0  0  0  0  0  0
  -29.3968   -3.1225   29.6975 O   0  0  0  0  0  0  0  0  0  0  0  0
  -26.9854    0.8141   27.1967 C   0  0  0  0  0  0  0  0  0  0  0  0
  -27.9287    0.7335   26.3185 C   0  0  0  0  0  0  0  0  0  0  0  0
  -27.7488    1.2031   25.0219 C   0  0  0  0  0  0  0  0  0  0  0  0
  -25.7459    1.2838   26.7339 C   0  0  0  0  0  0  0  0  0  0  0  0
  -24.5786    1.3958   27.6506 C   0  0  0  0  0  0  0  0  0  0  0  0
  -24.7518    0.9830   28.9885 C   0  0  0  0  0  0  0  0  0  0  0  0
  -28.8840    1.2099   24.2309 C   0  0  0  0  0  0  0  0  0  0  0  0
  -31.6146    1.2748   30.5899 C   0  0  0  0  0  0  0  0  0  0  0  0
  -29.9896    0.4644   24.5405 C   0  0  0  0  0  0  0  0  0  0  0  0
  -30.1928   -0.0280   25.8288 C   0  0  0  0  0  0  0  0  0  0  0  0
  -29.2125    0.1919   26.6984 C   0  0  0  0  0  0  0  0  0  0  0  0
  -32.5396    1.3358   31.2017 N   0  0  0  0  0  0  0  0  0  0  0  0
  -31.4217    2.1874   29.6383 O   0  0  0  0  0  0  0  0  0  0  0  0
  -33.6552    2.3142   31.1066 C   0  0  0  0  0  0  0  0  0  0  0  0
  -23.5904    1.1104   29.8777 C   0  0  0  0  0  0  0  0  0  0  0  0
  -22.4719    1.1831   29.4478 O   0  0  0  0  0  0  0  0  0  0  0  0
  -23.8512    1.1267   31.1998 O   0  0  0  0  0  0  0  0  0  0  0  0
  1  2  1  0
  1  3  1  0
  2  5  1  0
  4  6  1  0
  2  7  1  0
  6  7  1  0
  5  8  1  0
  2  9  1  0
  9 10  2  0
  8 11  1  0
 10 11  1  0
  5 12  2  0
  3 13  1  0
 13 14  1  0
 13 16  1  0
 16 17  1  0
  4 18  1  0
 17 18  1  0
 10 20  1  0
 20 24  1  0
 20 25  2  0
 24 26  1  0
 18 27  1  0
 27 28  2  0
 27 29  1  0
  3  4  1  0
 14 15  2  0
 15 19  1  0
 19 21  2  0
 21 22  1  0
 22 23  2  0
 23 14  1  0
M  END

$$$$
