No_886-gen_results/8p0m/2024-11-27-11-27-31/
     RDKit          3D

 35 38  0  0  0  0  0  0  0  0999 V2000
  -28.0162   -0.8135   28.8779 C   0  0  0  0  0  0  0  0  0  0  0  0
  -27.0636   -0.1189   28.6079 C   0  0  0  0  0  0  0  0  0  0  0  0
  -27.0010    0.6913   27.4910 C   0  0  0  0  0  0  0  0  0  0  0  0
  -25.8548    1.4825   27.0830 C   0  0  0  0  0  0  0  0  0  0  0  0
  -24.6901    1.4526   27.8807 C   0  0  0  0  0  0  0  0  0  0  0  0
  -24.7379    0.6010   29.0416 C   0  0  0  0  0  0  0  0  0  0  0  0
  -25.8234   -0.1688   29.3887 C   0  0  0  0  0  0  0  0  0  0  0  0
  -28.7350   -0.4637   30.1419 C   0  0  0  0  0  0  0  0  0  0  0  0
  -29.7910   -1.3607   30.6434 C   0  0  0  0  0  0  0  0  0  0  0  0
  -30.5819   -1.0220   31.5874 C   0  0  0  0  0  0  0  0  0  0  0  0
  -30.2847    0.1909   32.3352 C   0  0  0  0  0  0  0  0  0  0  0  0
  -29.2666    1.0013   31.9594 C   0  0  0  0  0  0  0  0  0  0  0  0
  -28.4469    0.7480   30.9311 C   0  0  0  0  0  0  0  0  0  0  0  0
  -23.4866    2.1478   27.5322 C   0  0  0  0  0  0  0  0  0  0  0  0
  -22.4970    1.8222   27.1678 N   0  0  0  0  0  0  0  0  0  0  0  0
  -23.7399    3.5064   27.4937 O   0  0  0  0  0  0  0  0  0  0  0  0
  -28.1269    0.8325   26.5768 C   0  0  0  0  0  0  0  0  0  0  0  0
  -28.0449    0.7207   25.3010 C   0  0  0  0  0  0  0  0  0  0  0  0
  -29.1607    0.7045   24.4048 C   0  0  0  0  0  0  0  0  0  0  0  0
  -30.4196    0.7093   24.9385 C   0  0  0  0  0  0  0  0  0  0  0  0
  -30.5532    0.7797   26.3428 C   0  0  0  0  0  0  0  0  0  0  0  0
  -29.4840    0.7986   27.1811 C   0  0  0  0  0  0  0  0  0  0  0  0
  -31.9563    0.8121   26.8697 C   0  0  0  0  0  0  0  0  0  0  0  0
  -32.3142    1.7242   27.7739 C   0  0  0  0  0  0  0  0  0  0  0  0
  -33.6302    1.7181   28.3917 C   0  0  0  0  0  0  0  0  0  0  0  0
  -34.4982    0.7326   27.9188 C   0  0  0  0  0  0  0  0  0  0  0  0
  -32.8684   -0.1492   26.5400 C   0  0  0  0  0  0  0  0  0  0  0  0
  -34.1122   -0.2007   27.0512 C   0  0  0  0  0  0  0  0  0  0  0  0
  -23.6140    0.6252   29.7652 F   0  0  0  0  0  0  0  0  0  0  0  0
  -35.8980    0.7159   28.5250 C   0  0  0  0  0  0  0  0  0  0  0  0
  -36.7015    0.0816   28.2542 N   0  0  0  0  0  0  0  0  0  0  0  0
  -36.1040    1.5825   29.4921 F   0  0  0  0  0  0  0  0  0  0  0  0
  -37.6841   -0.2742   28.4174 C   0  0  0  0  0  0  0  0  0  0  0  0
  -38.4995   -1.2913   27.6954 C   0  0  0  0  0  0  0  0  0  0  0  0
  -38.2892   -0.0622   29.6193 O   0  0  0  0  0  0  0  0  0  0  0  0
  1  2  1  0
  5 14  1  0
 14 15  1  0
 14 16  2  0
  3 17  1  0
 21 23  1  0
  6 29  1  0
 26 30  1  0
 30 31  2  3
 30 32  1  0
 31 33  1  0
 33 34  1  0
 33 35  2  0
  1  8  1  0
 17 18  2  0
 18 19  1  0
 19 20  2  0
 20 21  1  0
 21 22  2  0
 22 17  1  0
  2  3  1  0
  3  4  2  0
  4  5  1  0
  5  6  2  0
  6  7  1  0
  7  2  2  0
 23 24  2  0
 24 25  1  0
 25 26  2  0
 26 28  1  0
 28 27  2  0
 27 23  1  0
  8  9  2  0
  9 10  1  0
 10 11  2  0
 11 12  1  0
 12 13  2  0
 13  8  1  0
M  END

$$$$
