No_894-gen_results/8p0m/2024-11-27-11-27-31/
     RDKit          3D

 19 21  0  0  0  0  0  0  0  0999 V2000
  -28.0162   -0.8135   28.8779 C   0  0  0  0  0  0  0  0  0  0  0  0
  -28.4690   -0.7850   29.8287 C   0  0  0  0  0  0  0  0  0  0  0  0
  -27.1356    0.2359   28.5352 C   0  0  0  0  0  0  0  0  0  0  0  0
  -26.3351    0.2900   27.2835 C   0  0  0  0  0  0  0  0  0  0  0  0
  -28.3692    0.1957   30.9236 C   0  0  0  0  0  0  0  0  0  0  0  0
  -27.5158    1.2655   30.6540 C   0  0  0  0  0  0  0  0  0  0  0  0
  -26.8411    1.2942   29.4761 C   0  0  0  0  0  0  0  0  0  0  0  0
  -25.6775    1.5199   26.9774 C   0  0  0  0  0  0  0  0  0  0  0  0
  -25.3745    2.4477   27.9252 C   0  0  0  0  0  0  0  0  0  0  0  0
  -26.0827    2.4257   29.1425 C   0  0  0  0  0  0  0  0  0  0  0  0
  -25.2159    3.0046   30.1201 C   0  0  0  0  0  0  0  0  0  0  0  0
  -24.3545    2.4751   30.8435 O   0  0  0  0  0  0  0  0  0  0  0  0
  -25.7426    4.2549   30.6815 N   0  0  0  0  0  0  0  0  0  0  0  0
  -25.0921    4.9632   31.8287 C   0  0  0  0  0  0  0  0  0  0  0  0
  -26.7354    5.0273   29.9797 C   0  0  0  0  0  0  0  0  0  0  0  0
  -26.8438    6.3157   30.2931 C   0  0  0  0  0  0  0  0  0  0  0  0
  -25.2333    6.2587   32.0783 C   0  0  0  0  0  0  0  0  0  0  0  0
  -26.2395    6.9509   31.4103 C   0  0  0  0  0  0  0  0  0  0  0  0
  -27.8402    7.1357   29.5305 C   0  0  0  0  0  0  0  0  0  0  0  0
 10 11  1  0
 11 12  1  0
 11 13  1  0
 13 14  1  0
 13 15  1  0
 16 18  1  0
 17 18  1  0
 16 19  1  0
 14 17  1  0
 16 15  1  0
  1  2  2  0
  2  5  1  0
  5  6  2  0
  6  7  1  0
  3  1  1  0
  3  4  2  0
  4  8  1  0
  8  9  2  0
  9 10  1  0
 10  7  2  0
  7  3  1  0
M  END

$$$$
