No_89-gen_results/8p0m/2024-11-27-11-27-31/
     RDKit          3D

 21 23  0  0  0  0  0  0  0  0999 V2000
  -28.0162   -0.8135   28.8779 C   0  0  0  0  0  0  0  0  0  0  0  0
  -27.0636   -0.1189   28.6079 C   0  0  0  0  0  0  0  0  0  0  0  0
  -25.7647   -0.3897   29.0360 C   0  0  0  0  0  0  0  0  0  0  0  0
  -24.5516    0.4058   28.7646 C   0  0  0  0  0  0  0  0  0  0  0  0
  -24.6957    1.4480   27.7988 C   0  0  0  0  0  0  0  0  0  0  0  0
  -23.5821    2.2166   27.4626 C   0  0  0  0  0  0  0  0  0  0  0  0
  -22.3295    1.8427   27.9661 C   0  0  0  0  0  0  0  0  0  0  0  0
  -22.1809    0.8284   28.8814 C   0  0  0  0  0  0  0  0  0  0  0  0
  -23.3190    0.0774   29.2471 C   0  0  0  0  0  0  0  0  0  0  0  0
  -27.8976   -1.8938   29.8574 C   0  0  0  0  0  0  0  0  0  0  0  0
  -26.6550   -2.3404   30.2745 C   0  0  0  0  0  0  0  0  0  0  0  0
  -25.5323   -1.5588   29.9128 C   0  0  0  0  0  0  0  0  0  0  0  0
  -29.0612   -2.7220   30.2437 C   0  0  0  0  0  0  0  0  0  0  0  0
  -28.9730   -3.9294   30.2753 O   0  0  0  0  0  0  0  0  0  0  0  0
  -30.1804   -2.1186   30.6212 N   0  0  0  0  0  0  0  0  0  0  0  0
  -31.2501   -2.5282   30.9605 C   0  0  0  0  0  0  0  0  0  0  0  0
  -32.2600   -2.3120   31.0846 C   0  0  0  0  0  0  0  0  0  0  0  0
  -33.4527   -3.0535   31.5733 C   0  0  0  0  0  0  0  0  0  0  0  0
  -33.1454   -4.3663   31.9206 C   0  0  0  0  0  0  0  0  0  0  0  0
  -31.8836   -4.8767   31.7880 C   0  0  0  0  0  0  0  0  0  0  0  0
  -30.9064   -4.0822   31.4189 C   0  0  0  0  0  0  0  0  0  0  0  0
  3  4  1  0
 10 13  1  0
 13 14  2  0
 13 15  1  0
 15 16  1  0
 16 17  2  0
 17 18  1  0
 18 19  2  0
 19 20  1  0
 20 21  2  0
 21 16  1  0
  1  2  2  0
  2  3  1  0
  3 12  2  0
 12 11  1  0
 11 10  2  0
 10  1  1  0
  4  5  2  0
  5  6  1  0
  6  7  2  0
  7  8  1  0
  8  9  2  0
  9  4  1  0
M  END

$$$$
