No_88-gen_results/8p0m/2024-11-27-11-27-31/
     RDKit          3D

 15 16  0  0  0  0  0  0  0  0999 V2000
  -28.0162   -0.8135   28.8779 C   0  0  0  0  0  0  0  0  0  0  0  0
  -28.4690   -0.7850   29.8287 C   0  0  0  0  0  0  0  0  0  0  0  0
  -27.0871    0.2903   28.6377 C   0  0  0  0  0  0  0  0  0  0  0  0
  -26.9102    0.8486   27.4199 C   0  0  0  0  0  0  0  0  0  0  0  0
  -29.6069   -1.6266   30.1338 C   0  0  0  0  0  0  0  0  0  0  0  0
  -25.7234    1.3208   27.0407 C   0  0  0  0  0  0  0  0  0  0  0  0
  -25.4192    1.8248   25.7688 C   0  0  0  0  0  0  0  0  0  0  0  0
  -27.9998    0.0086   31.0823 C   0  0  0  0  0  0  0  0  0  0  0  0
  -27.1092    0.9990   30.9041 C   0  0  0  0  0  0  0  0  0  0  0  0
  -26.6679    1.2128   29.6717 C   0  0  0  0  0  0  0  0  0  0  0  0
  -27.1106   -0.1968   26.2381 C   0  0  0  0  0  0  0  0  0  0  0  0
  -27.4238    0.3229   24.9744 C   0  0  0  0  0  0  0  0  0  0  0  0
  -26.0649    0.9841   24.6373 C   0  0  0  0  0  0  0  0  0  0  0  0
  -29.3986   -2.8489   30.3776 O   0  0  0  0  0  0  0  0  0  0  0  0
  -30.7980   -1.3077   29.7308 O   0  0  0  0  0  0  0  0  0  0  0  0
  3  4  1  0
  2  5  1  0
  5 14  2  0
  5 15  1  0
  1  2  2  0
  2  8  1  0
  8  9  2  0
  9 10  1  0
 10  3  2  0
  3  1  1  0
  4  6  2  0
  6  7  1  0
  7 13  2  0
 13 12  1  0
 12 11  2  0
 11  4  1  0
M  END

$$$$
