No_807-gen_results/8p0m/2024-11-27-11-27-31/
     RDKit          3D

 19 20  0  0  0  0  0  0  0  0999 V2000
  -28.1493   -0.8198   28.9079 Cl  0  0  0  0  0  0  0  0  0  0  0  0
  -27.8339    0.4961   29.0598 C   0  0  0  0  0  0  0  0  0  0  0  0
  -27.5135    1.2383   28.0485 C   0  0  0  0  0  0  0  0  0  0  0  0
  -27.4902    0.6482   26.7008 C   0  0  0  0  0  0  0  0  0  0  0  0
  -26.9011    1.1408   25.5350 C   0  0  0  0  0  0  0  0  0  0  0  0
  -26.3688    2.4667   25.6553 C   0  0  0  0  0  0  0  0  0  0  0  0
  -26.4093    3.2084   26.8349 C   0  0  0  0  0  0  0  0  0  0  0  0
  -26.8991    2.6051   28.0022 C   0  0  0  0  0  0  0  0  0  0  0  0
  -27.8251    1.2213   30.3643 C   0  0  0  0  0  0  0  0  0  0  0  0
  -28.0224    0.5089   31.5136 C   0  0  0  0  0  0  0  0  0  0  0  0
  -27.9526    1.1433   32.6721 C   0  0  0  0  0  0  0  0  0  0  0  0
  -28.0915    0.5154   33.9678 C   0  0  0  0  0  0  0  0  0  0  0  0
  -28.3961   -0.8670   33.8997 C   0  0  0  0  0  0  0  0  0  0  0  0
  -28.4795   -1.5289   32.7115 C   0  0  0  0  0  0  0  0  0  0  0  0
  -28.2888   -0.8465   31.5268 C   0  0  0  0  0  0  0  0  0  0  0  0
  -26.8828    0.5321   24.4471 F   0  0  0  0  0  0  0  0  0  0  0  0
  -25.9024    4.4055   26.9005 F   0  0  0  0  0  0  0  0  0  0  0  0
  -27.6053    2.5829   32.7427 C   0  0  0  0  0  0  0  0  0  0  0  0
  -27.4962    2.9759   31.7411 F   0  0  0  0  0  0  0  0  0  0  0  0
  1  2  1  0
  2  9  1  0
  9 10  1  0
  5 16  1  0
  7 17  1  0
 11 18  1  0
 18 19  1  0
  2  3  1  0
  3  4  2  0
  4  5  1  0
  5  6  2  0
  6  7  1  0
  7  8  2  0
  8  3  1  0
 10 11  2  0
 11 12  1  0
 12 13  2  0
 13 14  1  0
 14 15  2  0
 15 10  1  0
M  END

$$$$
