No_891-gen_results/8p0m/2024-11-27-11-27-31/
     RDKit          3D

 14 14  0  0  0  0  0  0  0  0999 V2000
  -28.0162   -0.8135   28.8779 C   0  0  0  0  0  0  0  0  0  0  0  0
  -27.0636   -0.1189   28.6079 C   0  0  0  0  0  0  0  0  0  0  0  0
  -26.9716    0.7139   27.5060 C   0  0  0  0  0  0  0  0  0  0  0  0
  -28.1053    0.7744   26.6421 C   0  0  0  0  0  0  0  0  0  0  0  0
  -29.2041    0.1179   27.0477 C   0  0  0  0  0  0  0  0  0  0  0  0
  -29.2127   -0.6088   28.1281 C   0  0  0  0  0  0  0  0  0  0  0  0
  -30.3709    0.2326   26.1381 C   0  0  0  0  0  0  0  0  0  0  0  0
  -30.2836    0.1310   24.9011 N   0  0  0  0  0  0  0  0  0  0  0  0
  -31.1925    1.4573   26.4760 C   0  0  0  0  0  0  0  0  0  0  0  0
  -25.6768    1.4062   27.0967 C   0  0  0  0  0  0  0  0  0  0  0  0
  -24.5504    1.0812   27.7641 C   0  0  0  0  0  0  0  0  0  0  0  0
  -24.2352    0.1516   28.6304 C   0  0  0  0  0  0  0  0  0  0  0  0
  -22.9708    0.0015   29.2745 C   0  0  0  0  0  0  0  0  0  0  0  0
  -22.0100    0.5591   28.8287 C   0  0  0  0  0  0  0  0  0  0  0  0
  5  7  1  0
  7  8  1  0
  7  9  1  0
  3 10  1  0
 10 11  2  3
 11 12  1  0
 12 13  2  3
 13 14  1  0
  1  2  2  0
  2  3  1  0
  3  4  2  0
  4  5  1  0
  5  6  2  0
  6  1  1  0
M  END

$$$$
