No_874-gen_results/8p0m/2024-11-27-11-27-31/
     RDKit          3D

 28 31  0  0  0  0  0  0  0  0999 V2000
  -28.0162   -0.8135   28.8779 C   0  0  0  0  0  0  0  0  0  0  0  0
  -28.4690   -0.7850   29.8287 C   0  0  0  0  0  0  0  0  0  0  0  0
  -27.1356    0.2359   28.5352 C   0  0  0  0  0  0  0  0  0  0  0  0
  -26.8745    1.2825   29.3982 C   0  0  0  0  0  0  0  0  0  0  0  0
  -28.3613    0.1987   30.9244 C   0  0  0  0  0  0  0  0  0  0  0  0
  -27.5277    1.2234   30.6356 C   0  0  0  0  0  0  0  0  0  0  0  0
  -26.3987    0.2949   27.2279 C   0  0  0  0  0  0  0  0  0  0  0  0
  -25.0392    0.2356   27.3538 C   0  0  0  0  0  0  0  0  0  0  0  0
  -27.0287    0.3958   26.0087 C   0  0  0  0  0  0  0  0  0  0  0  0
  -26.2536    0.2643   24.9608 N   0  0  0  0  0  0  0  0  0  0  0  0
  -24.3240    0.0834   28.6052 C   0  0  0  0  0  0  0  0  0  0  0  0
  -23.2211    0.6628   28.9095 C   0  0  0  0  0  0  0  0  0  0  0  0
  -22.5863    1.5632   27.8765 C   0  0  0  0  0  0  0  0  0  0  0  0
  -23.2986    1.8327   26.7028 C   0  0  0  0  0  0  0  0  0  0  0  0
  -24.1896    0.3731   26.2092 C   0  0  0  0  0  0  0  0  0  0  0  0
  -28.2014    0.9496   25.8597 N   0  0  0  0  0  0  0  0  0  0  0  0
  -25.0308    0.9821   25.2707 N   0  0  0  0  0  0  0  0  0  0  0  0
  -28.7850    2.0616   26.4596 C   0  0  0  0  0  0  0  0  0  0  0  0
  -28.2631    3.2214   26.3705 C   0  0  0  0  0  0  0  0  0  0  0  0
  -29.0689    0.1468   24.9632 C   0  0  0  0  0  0  0  0  0  0  0  0
  -29.9734    1.8254   27.2792 C   0  0  0  0  0  0  0  0  0  0  0  0
  -30.4166    2.8770   28.1321 C   0  0  0  0  0  0  0  0  0  0  0  0
  -28.7071    4.3710   27.1672 C   0  0  0  0  0  0  0  0  0  0  0  0
  -29.8413    4.1864   27.9580 C   0  0  0  0  0  0  0  0  0  0  0  0
  -31.5844    2.6970   28.9965 C   0  0  0  0  0  0  0  0  0  0  0  0
  -32.0610    1.5444   29.2260 N   0  0  0  0  0  0  0  0  0  0  0  0
  -33.1203    1.2132   29.2201 C   0  0  0  0  0  0  0  0  0  0  0  0
  -33.5346   -0.1882   29.4697 C   0  0  0  0  0  0  0  0  0  0  0  0
  3  7  1  0
  7  8  1  0
  7  9  1  0
  9 10  1  0
  9 16  1  0
 10 17  1  0
 15 17  1  0
 16 18  1  0
 16 20  1  0
 22 25  1  0
 25 26  1  0
 26 27  1  0
 27 28  2  0
 18 19  2  0
 19 23  1  0
 23 24  2  0
 24 22  1  0
 22 21  2  0
 21 18  1  0
  8 11  2  0
 11 12  1  0
 12 13  2  0
 13 14  1  0
 14 15  2  0
 15  8  1  0
  1  2  2  0
  2  5  1  0
  5  6  2  0
  6  4  1  0
  4  3  2  0
  3  1  1  0
M  END

$$$$
