No_864-gen_results/8p0m/2024-11-27-11-27-31/
     RDKit          3D

 26 31  0  0  0  0  0  0  0  0999 V2000
  -28.0162   -0.8135   28.8779 C   0  0  0  0  0  0  0  0  0  0  0  0
  -28.4690   -0.7850   29.8287 C   0  0  0  0  0  0  0  0  0  0  0  0
  -27.0871    0.2903   28.6377 C   0  0  0  0  0  0  0  0  0  0  0  0
  -26.7676    1.0274   29.4716 C   0  0  0  0  0  0  0  0  0  0  0  0
  -28.2764    0.0268   31.0145 C   0  0  0  0  0  0  0  0  0  0  0  0
  -27.3287    1.0538   30.7535 C   0  0  0  0  0  0  0  0  0  0  0  0
  -25.8480    2.2567   29.4277 C   0  0  0  0  0  0  0  0  0  0  0  0
  -25.5646    2.6421   28.0994 C   0  0  0  0  0  0  0  0  0  0  0  0
  -24.6795    1.7957   27.4049 C   0  0  0  0  0  0  0  0  0  0  0  0
  -23.4996    1.4150   28.0755 C   0  0  0  0  0  0  0  0  0  0  0  0
  -22.2290    1.4501   27.4882 C   0  0  0  0  0  0  0  0  0  0  0  0
  -21.0770    1.0713   28.2672 C   0  0  0  0  0  0  0  0  0  0  0  0
  -23.2958    1.4818   29.4991 C   0  0  0  0  0  0  0  0  0  0  0  0
  -22.3121    0.8779   30.1420 O   0  0  0  0  0  0  0  0  0  0  0  0
  -21.1561    0.7648   29.5621 C   0  0  0  0  0  0  0  0  0  0  0  0
  -24.3906    1.8991   30.0091 C   0  0  0  0  0  0  0  0  0  0  0  0
  -26.4081    3.4590   30.2105 C   0  0  0  0  0  0  0  0  0  0  0  0
  -26.5459    4.6485   29.5462 C   0  0  0  0  0  0  0  0  0  0  0  0
  -26.1651    4.8346   28.2579 C   0  0  0  0  0  0  0  0  0  0  0  0
  -25.8068    3.8619   27.4429 C   0  0  0  0  0  0  0  0  0  0  0  0
  -27.7243    2.9037   30.8607 C   0  0  0  0  0  0  0  0  0  0  0  0
  -25.4957    3.7713   31.5675 C   0  0  0  0  0  0  0  0  0  0  0  0
  -25.8197    4.8160   32.3669 C   0  0  0  0  0  0  0  0  0  0  0  0
  -24.4010    2.7523   31.6077 C   0  0  0  0  0  0  0  0  0  0  0  0
  -25.4734    5.9659   31.9770 C   0  0  0  0  0  0  0  0  0  0  0  0
  -25.9151    7.2398   32.0229 Cl  0  0  0  0  0  0  0  0  0  0  0  0
  4  7  1  0
  7  8  1  0
  8  9  1  0
  9 10  1  0
 10 11  2  0
 11 12  1  0
 10 13  1  0
 13 14  1  0
 12 15  2  0
 14 15  1  0
  7 16  1  0
 13 16  1  0
  7 17  1  0
 17 18  1  0
  8 20  1  0
 19 20  1  0
  6 21  1  0
 17 21  1  0
 17 22  1  0
 22 23  1  0
 16 24  1  0
 22 24  1  0
 23 25  1  0
 25 26  1  0
 19 18  1  0
  1  2  2  0
  2  5  1  0
  5  6  2  0
  6  4  1  0
  4  3  2  0
  3  1  1  0
M  END

$$$$
