No_87-gen_results/8p0m/2024-11-27-11-27-31/
     RDKit          3D

 34 37  0  0  0  0  0  0  0  0999 V2000
  -28.0162   -0.8135   28.8779 C   0  0  0  0  0  0  0  0  0  0  0  0
  -27.0636   -0.1190   28.6079 C   0  0  0  0  0  0  0  0  0  0  0  0
  -27.0010    0.6913   27.4910 C   0  0  0  0  0  0  0  0  0  0  0  0
  -25.8548    1.4825   27.0830 C   0  0  0  0  0  0  0  0  0  0  0  0
  -24.6901    1.4526   27.8807 C   0  0  0  0  0  0  0  0  0  0  0  0
  -24.7379    0.6010   29.0416 C   0  0  0  0  0  0  0  0  0  0  0  0
  -25.8234   -0.1688   29.3887 C   0  0  0  0  0  0  0  0  0  0  0  0
  -28.7568   -0.5479   30.0191 N   0  0  0  0  0  0  0  0  0  0  0  0
  -28.9317    0.3890   30.5031 C   0  0  0  0  0  0  0  0  0  0  0  0
  -28.7851    1.4634   30.0132 O   0  0  0  0  0  0  0  0  0  0  0  0
  -29.7604    0.3147   31.9056 C   0  0  0  0  0  0  0  0  0  0  0  0
  -23.5208    2.2325   27.5743 C   0  0  0  0  0  0  0  0  0  0  0  0
  -22.9910    2.7244   28.5742 F   0  0  0  0  0  0  0  0  0  0  0  0
  -23.7471    3.2338   26.6842 F   0  0  0  0  0  0  0  0  0  0  0  0
  -22.5288    1.3794   27.0100 F   0  0  0  0  0  0  0  0  0  0  0  0
  -28.8272   -1.9536   30.7476 C   0  0  0  0  0  0  0  0  0  0  0  0
  -29.8555   -2.0416   31.6044 C   0  0  0  0  0  0  0  0  0  0  0  0
  -29.9032   -0.9073   32.5830 C   0  0  0  0  0  0  0  0  0  0  0  0
  -30.1343    1.6112   32.5337 C   0  0  0  0  0  0  0  0  0  0  0  0
  -29.6679    2.4893   32.4200 C   0  0  0  0  0  0  0  0  0  0  0  0
  -30.1485    3.6749   33.0320 N   0  0  0  0  0  0  0  0  0  0  0  0
  -31.5188    1.7725   32.9872 C   0  0  0  0  0  0  0  0  0  0  0  0
  -31.9231    2.8151   33.5142 C   0  0  0  0  0  0  0  0  0  0  0  0
  -31.2531    3.9048   33.5487 C   0  0  0  0  0  0  0  0  0  0  0  0
  -33.3596    2.7761   34.1089 C   0  0  0  0  0  0  0  0  0  0  0  0
  -33.5850    3.3299   35.2298 C   0  0  0  0  0  0  0  0  0  0  0  0
  -34.3341    2.1034   33.3332 C   0  0  0  0  0  0  0  0  0  0  0  0
  -34.9241    3.2776   35.7839 C   0  0  0  0  0  0  0  0  0  0  0  0
  -35.6481    2.0767   33.8741 C   0  0  0  0  0  0  0  0  0  0  0  0
  -35.9111    2.6439   35.0655 C   0  0  0  0  0  0  0  0  0  0  0  0
  -37.1471    2.5786   35.4999 F   0  0  0  0  0  0  0  0  0  0  0  0
  -36.7932    1.2584   32.9607 Cl  0  0  0  0  0  0  0  0  0  0  0  0
  -31.6107    4.9990   34.0578 F   0  0  0  0  0  0  0  0  0  0  0  0
  -27.9648    0.7312   26.6227 F   0  0  0  0  0  0  0  0  0  0  0  0
  1  2  1  0
  1  8  1  0
  8  9  1  0
  9 10  2  0
  9 11  1  0
  5 12  1  0
 12 13  1  0
 12 14  1  0
 12 15  1  0
  8 16  1  0
 11 18  1  0
 17 18  1  0
 11 19  1  0
 23 25  1  0
 30 31  1  0
 29 32  1  0
 24 33  1  0
  3 34  1  0
 17 16  1  0
  2  3  2  0
  3  4  1  0
  4  5  2  0
  5  6  1  0
  6  7  2  0
  7  2  1  0
 19 20  2  0
 20 21  1  0
 21 24  2  0
 24 23  1  0
 23 22  2  0
 22 19  1  0
 25 26  2  0
 26 28  1  0
 28 30  2  0
 30 29  1  0
 29 27  2  0
 27 25  1  0
M  END

$$$$
