No_862-gen_results/8p0m/2024-11-27-11-27-31/
     RDKit          3D

 17 18  0  0  0  0  0  0  0  0999 V2000
  -28.0162   -0.8135   28.8779 C   0  0  0  0  0  0  0  0  0  0  0  0
  -28.4690   -0.7850   29.8287 C   0  0  0  0  0  0  0  0  0  0  0  0
  -28.1816    0.4277   28.1134 C   0  0  0  0  0  0  0  0  0  0  0  0
  -28.9841    1.4155   28.5154 C   0  0  0  0  0  0  0  0  0  0  0  0
  -29.3802    0.1384   30.4612 C   0  0  0  0  0  0  0  0  0  0  0  0
  -29.5415    1.2736   29.7242 C   0  0  0  0  0  0  0  0  0  0  0  0
  -27.4586    0.4934   26.7701 C   0  0  0  0  0  0  0  0  0  0  0  0
  -26.0264    0.3840   26.7617 C   0  0  0  0  0  0  0  0  0  0  0  0
  -25.2897    0.9319   25.7830 C   0  0  0  0  0  0  0  0  0  0  0  0
  -23.8971    0.9071   25.8408 C   0  0  0  0  0  0  0  0  0  0  0  0
  -23.2504    0.7158   27.0661 C   0  0  0  0  0  0  0  0  0  0  0  0
  -24.0334    0.3003   28.1689 C   0  0  0  0  0  0  0  0  0  0  0  0
  -25.3916    0.1763   28.0589 C   0  0  0  0  0  0  0  0  0  0  0  0
  -23.3420    0.0543   29.4554 C   0  0  0  0  0  0  0  0  0  0  0  0
  -22.2864    0.2280   29.7218 N   0  0  0  0  0  0  0  0  0  0  0  0
  -23.8358   -1.3427   29.9224 C   0  0  0  0  0  0  0  0  0  0  0  0
  -28.0982    0.1861   25.7722 O   0  0  0  0  0  0  0  0  0  0  0  0
  3  7  1  0
  7  8  1  0
 12 14  1  0
 14 15  1  0
 14 16  1  0
  7 17  2  0
  8  9  2  0
  9 10  1  0
 10 11  2  0
 11 12  1  0
 12 13  2  0
 13  8  1  0
  1  2  2  0
  2  5  1  0
  5  6  2  0
  6  4  1  0
  4  3  2  0
  3  1  1  0
M  END

$$$$
