No_821-gen_results/8p0m/2024-11-27-11-27-31/
     RDKit          3D

 16 17  0  0  0  0  0  0  0  0999 V2000
  -28.0162   -0.8135   28.8779 C   0  0  0  0  0  0  0  0  0  0  0  0
  -28.4690   -0.7850   29.8287 C   0  0  0  0  0  0  0  0  0  0  0  0
  -28.1960    0.3478   28.0550 C   0  0  0  0  0  0  0  0  0  0  0  0
  -29.0191    1.3501   28.3782 C   0  0  0  0  0  0  0  0  0  0  0  0
  -29.6249    1.2683   29.6012 C   0  0  0  0  0  0  0  0  0  0  0  0
  -29.3821    0.1816   30.4004 C   0  0  0  0  0  0  0  0  0  0  0  0
  -27.2636    0.3825   26.3657 Br  0  0  0  0  0  0  0  0  0  0  0  0
  -30.5278    2.3116   30.0533 C   0  0  0  0  0  0  0  0  0  0  0  0
  -30.4228    2.8188   31.2605 C   0  0  0  0  0  0  0  0  0  0  0  0
  -29.5859    2.4970   32.0374 F   0  0  0  0  0  0  0  0  0  0  0  0
  -31.4277    3.7457   31.7184 C   0  0  0  0  0  0  0  0  0  0  0  0
  -32.3559    4.1441   31.0864 N   0  0  0  0  0  0  0  0  0  0  0  0
  -31.5223    2.6587   29.1315 C   0  0  0  0  0  0  0  0  0  0  0  0
  -31.6874    2.2159   27.7952 C   0  0  0  0  0  0  0  0  0  0  0  0
  -32.4738    3.7002   29.6277 C   0  0  0  0  0  0  0  0  0  0  0  0
  -33.2281    4.2007   28.8030 O   0  0  0  0  0  0  0  0  0  0  0  0
  3  7  1  0
  5  8  1  0
  8  9  1  0
  9 10  1  0
  9 11  1  0
  8 13  1  0
 13 14  1  0
 12 15  1  0
 13 15  1  0
 15 16  2  0
 12 11  1  0
  1  2  2  0
  2  6  1  0
  6  5  2  0
  5  4  1  0
  4  3  2  0
  3  1  1  0
M  END

$$$$
