No_812-gen_results/8p0m/2024-11-27-11-27-31/
     RDKit          3D

 35 38  0  0  0  0  0  0  0  0999 V2000
  -28.0162   -0.8135   28.8779 C   0  0  0  0  0  0  0  0  0  0  0  0
  -27.0636   -0.1189   28.6079 C   0  0  0  0  0  0  0  0  0  0  0  0
  -27.0010    0.6913   27.4910 C   0  0  0  0  0  0  0  0  0  0  0  0
  -28.1373    0.7363   26.6350 C   0  0  0  0  0  0  0  0  0  0  0  0
  -29.2360    0.0765   27.0690 C   0  0  0  0  0  0  0  0  0  0  0  0
  -29.2177   -0.6429   28.1747 C   0  0  0  0  0  0  0  0  0  0  0  0
  -30.4152    0.1590   26.1820 C   0  0  0  0  0  0  0  0  0  0  0  0
  -31.3727   -0.5052   26.4854 N   0  0  0  0  0  0  0  0  0  0  0  0
  -30.3871    0.8406   25.1078 O   0  0  0  0  0  0  0  0  0  0  0  0
  -32.5900   -0.5930   25.5964 C   0  0  0  0  0  0  0  0  0  0  0  0
  -25.7210   -0.2115   29.4350 C   0  0  0  0  0  0  0  0  0  0  0  0
  -24.9383    0.3725   29.7542 C   0  0  0  0  0  0  0  0  0  0  0  0
  -23.6794    0.0639   30.4380 C   0  0  0  0  0  0  0  0  0  0  0  0
  -23.5976   -1.2502   30.8592 C   0  0  0  0  0  0  0  0  0  0  0  0
  -25.5083   -1.7341   29.8674 C   0  0  0  0  0  0  0  0  0  0  0  0
  -24.4733   -2.0738   30.5419 C   0  0  0  0  0  0  0  0  0  0  0  0
  -24.9039    1.9411   29.3624 C   0  0  0  0  0  0  0  0  0  0  0  0
  -25.3127    2.9193   30.1883 N   0  0  0  0  0  0  0  0  0  0  0  0
  -25.6563    4.1245   29.8091 C   0  0  0  0  0  0  0  0  0  0  0  0
  -25.3982    4.4456   28.5077 N   0  0  0  0  0  0  0  0  0  0  0  0
  -24.3270    2.4114   28.1096 C   0  0  0  0  0  0  0  0  0  0  0  0
  -24.6372    3.6959   27.7256 C   0  0  0  0  0  0  0  0  0  0  0  0
  -26.3271    5.0040   30.5264 N   0  0  0  0  0  0  0  0  0  0  0  0
  -26.4723    4.8521   31.8551 C   0  0  0  0  0  0  0  0  0  0  0  0
  -27.0033    6.1293   29.9613 C   0  0  0  0  0  0  0  0  0  0  0  0
  -25.6854    5.3148   32.6869 C   0  0  0  0  0  0  0  0  0  0  0  0
  -24.6190    6.1565   32.3204 C   0  0  0  0  0  0  0  0  0  0  0  0
  -24.0194    6.8519   32.9370 C   0  0  0  0  0  0  0  0  0  0  0  0
  -22.8135    7.6861   32.4754 C   0  0  0  0  0  0  0  0  0  0  0  0
  -21.6937    7.7852   33.1586 C   0  0  0  0  0  0  0  0  0  0  0  0
  -21.6710    7.6007   34.5938 C   0  0  0  0  0  0  0  0  0  0  0  0
  -22.7827    6.9406   35.1394 C   0  0  0  0  0  0  0  0  0  0  0  0
  -23.8049    6.5678   34.3393 C   0  0  0  0  0  0  0  0  0  0  0  0
  -28.0840    5.8400   29.2784 C   0  0  0  0  0  0  0  0  0  0  0  0
  -28.9316    5.0382   29.5634 C   0  0  0  0  0  0  0  0  0  0  0  0
  5  7  1  0
  7  8  1  0
  7  9  2  0
  8 10  1  0
  2 11  1  0
 12 17  1  0
 19 23  1  0
 23 24  1  0
 23 25  1  0
 24 26  2  3
 26 27  1  0
 25 34  1  0
 34 35  2  0
 27 28  1  0
 28 29  2  0
 29 30  1  0
 30 31  2  0
 31 32  1  0
 32 33  2  0
 33 28  1  0
  1  2  2  0
  2  3  1  0
  3  4  2  0
  4  5  1  0
  5  6  2  0
  6  1  1  0
 17 18  2  0
 18 19  1  0
 19 20  2  0
 20 22  1  0
 22 21  2  0
 21 17  1  0
 11 12  1  0
 12 13  2  0
 13 14  1  0
 14 16  2  0
 16 15  1  0
 15 11  2  0
M  END

$$$$
