No_813-gen_results/8p0m/2024-11-27-11-27-31/
     RDKit          3D

 17 19  0  0  0  0  0  0  0  0999 V2000
  -28.0162   -0.8135   28.8779 C   0  0  0  0  0  0  0  0  0  0  0  0
  -27.0636   -0.1190   28.6079 C   0  0  0  0  0  0  0  0  0  0  0  0
  -27.0010    0.6913   27.4910 C   0  0  0  0  0  0  0  0  0  0  0  0
  -28.1420    0.8282   26.7994 C   0  0  0  0  0  0  0  0  0  0  0  0
  -27.9310   -1.6069   30.1504 C   0  0  0  0  0  0  0  0  0  0  0  0
  -26.7094   -1.7845   30.7448 C   0  0  0  0  0  0  0  0  0  0  0  0
  -25.5731   -1.1815   30.3081 C   0  0  0  0  0  0  0  0  0  0  0  0
  -25.6842   -0.3065   29.2345 C   0  0  0  0  0  0  0  0  0  0  0  0
  -29.2618    0.1786   27.2656 C   0  0  0  0  0  0  0  0  0  0  0  0
  -29.3113   -0.6976   28.3939 N   0  0  0  0  0  0  0  0  0  0  0  0
  -30.4798    0.2977   26.5931 N   0  0  0  0  0  0  0  0  0  0  0  0
  -29.0875   -2.4201   30.6361 C   0  0  0  0  0  0  0  0  0  0  0  0
  -29.9685   -2.6858   29.9571 O   0  0  0  0  0  0  0  0  0  0  0  0
  -29.0923   -2.6161   31.8928 O   0  0  0  0  0  0  0  0  0  0  0  0
  -30.5427    0.8373   25.4295 C   0  0  0  0  0  0  0  0  0  0  0  0
  -29.4354    1.6049   24.9328 C   0  0  0  0  0  0  0  0  0  0  0  0
  -28.2033    1.5090   25.5795 C   0  0  0  0  0  0  0  0  0  0  0  0
  5 12  1  0
 12 13  2  0
 12 14  1  0
  9 11  2  0
 11 15  1  0
 15 16  2  0
 16 17  1  0
 17  4  2  0
  2  3  2  0
  3  4  1  0
  4  9  1  0
  9 10  1  0
 10  1  2  0
  1  2  1  0
  2  8  1  0
  8  7  2  0
  7  6  1  0
  6  5  2  0
  5  1  1  0
M  END

$$$$
