No_851-gen_results/8p0m/2024-11-27-11-27-31/
     RDKit          3D

 14 14  0  0  0  0  0  0  0  0999 V2000
  -28.0162   -0.8135   28.8779 C   0  0  0  0  0  0  0  0  0  0  0  0
  -27.0636   -0.1190   28.6079 C   0  0  0  0  0  0  0  0  0  0  0  0
  -26.9716    0.7139   27.5060 C   0  0  0  0  0  0  0  0  0  0  0  0
  -28.1053    0.7744   26.6421 C   0  0  0  0  0  0  0  0  0  0  0  0
  -29.2041    0.1179   27.0477 C   0  0  0  0  0  0  0  0  0  0  0  0
  -28.0275   -1.5889   30.0894 C   0  0  0  0  0  0  0  0  0  0  0  0
  -29.1542   -0.6330   28.1436 C   0  0  0  0  0  0  0  0  0  0  0  0
  -28.9912   -1.9323   30.5557 F   0  0  0  0  0  0  0  0  0  0  0  0
  -27.1990   -1.0975   31.1008 F   0  0  0  0  0  0  0  0  0  0  0  0
  -27.1589   -2.7324   29.7679 F   0  0  0  0  0  0  0  0  0  0  0  0
  -30.2783    0.1918   26.2799 F   0  0  0  0  0  0  0  0  0  0  0  0
  -25.8244    1.3629   27.1674 F   0  0  0  0  0  0  0  0  0  0  0  0
  -28.0411    1.5816   25.5904 O   0  0  0  0  0  0  0  0  0  0  0  0
  -27.7206    2.8061   25.6904 C   0  0  0  0  0  0  0  0  0  0  0  0
  1  6  1  0
  6  8  1  0
  6  9  1  0
  6 10  1  0
  5 11  1  0
  3 12  1  0
  4 13  1  0
 13 14  1  0
  1  2  2  0
  2  3  1  0
  3  4  2  0
  4  5  1  0
  5  7  2  0
  7  1  1  0
M  END

$$$$
