No_835-gen_results/8p0m/2024-11-27-11-27-31/
     RDKit          3D

 35 36  0  0  0  0  0  0  0  0999 V2000
  -28.0162   -0.8135   28.8779 C   0  0  0  0  0  0  0  0  0  0  0  0
  -27.0636   -0.1190   28.6079 C   0  0  0  0  0  0  0  0  0  0  0  0
  -27.0010    0.6913   27.4910 C   0  0  0  0  0  0  0  0  0  0  0  0
  -28.1373    0.7363   26.6350 C   0  0  0  0  0  0  0  0  0  0  0  0
  -29.2360    0.0765   27.0690 C   0  0  0  0  0  0  0  0  0  0  0  0
  -29.2177   -0.6429   28.1747 C   0  0  0  0  0  0  0  0  0  0  0  0
  -30.4152    0.1590   26.1820 C   0  0  0  0  0  0  0  0  0  0  0  0
  -31.3727   -0.5052   26.4854 N   0  0  0  0  0  0  0  0  0  0  0  0
  -30.5283    1.1022   25.3699 O   0  0  0  0  0  0  0  0  0  0  0  0
  -32.6201   -0.5296   25.6360 C   0  0  0  0  0  0  0  0  0  0  0  0
  -25.4470   -0.1696   29.4221 Cl  0  0  0  0  0  0  0  0  0  0  0  0
  -28.0082   -1.6290   30.1013 N   0  0  0  0  0  0  0  0  0  0  0  0
  -27.0291   -2.2111   30.5287 C   0  0  0  0  0  0  0  0  0  0  0  0
  -29.2881   -1.8685   30.7234 C   0  0  0  0  0  0  0  0  0  0  0  0
  -30.0804   -2.5672   30.5957 C   0  0  0  0  0  0  0  0  0  0  0  0
  -31.3004   -2.6836   31.2824 C   0  0  0  0  0  0  0  0  0  0  0  0
  -29.6247   -0.5440   31.4495 C   0  0  0  0  0  0  0  0  0  0  0  0
  -30.8178   -0.5431   32.1659 C   0  0  0  0  0  0  0  0  0  0  0  0
  -31.6589   -1.5933   32.0541 C   0  0  0  0  0  0  0  0  0  0  0  0
  -32.9832   -1.5971   32.7748 C   0  0  0  0  0  0  0  0  0  0  0  0
  -33.8471   -2.2601   32.6500 O   0  0  0  0  0  0  0  0  0  0  0  0
  -32.9372   -0.8407   33.9248 O   0  0  0  0  0  0  0  0  0  0  0  0
  -33.9225   -0.5815   34.6020 C   0  0  0  0  0  0  0  0  0  0  0  0
  -34.2373   -0.8470   35.7970 C   0  0  0  0  0  0  0  0  0  0  0  0
  -33.2437   -1.0189   36.5409 F   0  0  0  0  0  0  0  0  0  0  0  0
  -34.9205   -2.0494   35.8910 F   0  0  0  0  0  0  0  0  0  0  0  0
  -35.0682    0.0638   36.3845 F   0  0  0  0  0  0  0  0  0  0  0  0
  -33.9041    0.9324   34.3690 O   0  0  0  0  0  0  0  0  0  0  0  0
  -26.4624   -2.0794   32.0717 Cl  0  0  0  0  0  0  0  0  0  0  0  0
  -26.4583   -3.3914   29.7815 C   0  0  0  0  0  0  0  0  0  0  0  0
  -33.2033   -1.7564   25.6791 C   0  0  0  0  0  0  0  0  0  0  0  0
  -33.9958   -1.9770   26.3663 C   0  0  0  0  0  0  0  0  0  0  0  0
  -34.0893   -2.3422   27.3067 C   0  0  0  0  0  0  0  0  0  0  0  0
  -35.2057   -2.5090   28.2466 C   0  0  0  0  0  0  0  0  0  0  0  0
  -36.3850   -2.4376   27.7567 C   0  0  0  0  0  0  0  0  0  0  0  0
  5  7  1  0
  7  8  1  0
  7  9  2  0
  8 10  1  0
  2 11  1  0
  1 12  1  0
 12 13  1  0
 12 14  1  0
 19 20  1  0
 20 21  2  0
 20 22  1  0
 22 23  1  0
 23 24  1  0
 24 25  1  0
 24 26  1  0
 24 27  1  0
 23 28  1  0
 13 29  1  0
 13 30  1  0
 10 31  1  0
 31 32  2  3
 32 33  1  0
 33 34  1  0
 34 35  2  0
  1  2  2  0
  2  3  1  0
  3  4  2  0
  4  5  1  0
  5  6  2  0
  6  1  1  0
 14 15  2  0
 15 16  1  0
 16 19  2  0
 19 18  1  0
 18 17  2  0
 17 14  1  0
M  END

$$$$
