No_845-gen_results/8p0m/2024-11-27-11-27-31/
     RDKit          3D

 13 14  0  0  0  0  0  0  0  0999 V2000
  -28.0162   -0.8135   28.8779 C   0  0  0  0  0  0  0  0  0  0  0  0
  -28.4690   -0.7850   29.8287 C   0  0  0  0  0  0  0  0  0  0  0  0
  -28.1960    0.3478   28.0550 C   0  0  0  0  0  0  0  0  0  0  0  0
  -27.4421    0.5100   26.7946 C   0  0  0  0  0  0  0  0  0  0  0  0
  -26.1689   -0.0794   26.6787 C   0  0  0  0  0  0  0  0  0  0  0  0
  -25.7312   -0.9607   27.6875 C   0  0  0  0  0  0  0  0  0  0  0  0
  -26.5043   -1.2222   28.7582 C   0  0  0  0  0  0  0  0  0  0  0  0
  -28.3432   -2.0040   30.7789 C   0  0  0  0  0  0  0  0  0  0  0  0
  -27.1300   -2.6401   30.6981 N   0  0  0  0  0  0  0  0  0  0  0  0
  -26.2532   -2.4346   29.6051 C   0  0  0  0  0  0  0  0  0  0  0  0
  -25.2320   -3.1183   29.5395 O   0  0  0  0  0  0  0  0  0  0  0  0
  -29.3802    0.9379   27.9803 O   0  0  0  0  0  0  0  0  0  0  0  0
  -27.8322    1.6481   25.6179 Cl  0  0  0  0  0  0  0  0  0  0  0  0
  1  3  1  0
  3  4  1  0
  4  5  1  0
  5  6  1  0
  1  7  1  0
  2  8  1  0
  7 10  1  0
  9 10  1  0
 10 11  2  0
  3 12  2  0
  4 13  1  0
  1  2  1  0
  8  9  1  0
  7  6  1  0
M  END

$$$$
