No_855-gen_results/8p0m/2024-11-27-11-27-31/
     RDKit          3D

 15 17  0  0  0  0  0  0  0  0999 V2000
  -28.0162   -0.8135   28.8779 C   0  0  0  0  0  0  0  0  0  0  0  0
  -27.0636   -0.1189   28.6079 C   0  0  0  0  0  0  0  0  0  0  0  0
  -25.7923   -0.4302   29.0761 C   0  0  0  0  0  0  0  0  0  0  0  0
  -24.5456    0.3494   28.8225 C   0  0  0  0  0  0  0  0  0  0  0  0
  -23.2409    0.0217   29.3323 C   0  0  0  0  0  0  0  0  0  0  0  0
  -22.1362    0.7695   29.0059 C   0  0  0  0  0  0  0  0  0  0  0  0
  -29.3516   -0.3508   28.7011 C   0  0  0  0  0  0  0  0  0  0  0  0
  -29.5331    0.7200   27.8442 C   0  0  0  0  0  0  0  0  0  0  0  0
  -28.4236    1.4160   27.3797 C   0  0  0  0  0  0  0  0  0  0  0  0
  -27.1068    1.0841   27.8138 C   0  0  0  0  0  0  0  0  0  0  0  0
  -22.1678    1.8202   28.0995 C   0  0  0  0  0  0  0  0  0  0  0  0
  -23.4336    2.1629   27.5494 C   0  0  0  0  0  0  0  0  0  0  0  0
  -24.5633    1.4269   27.8538 C   0  0  0  0  0  0  0  0  0  0  0  0
  -25.9408    1.8022   27.4070 C   0  0  0  0  0  0  0  0  0  0  0  0
  -26.0324    2.9558   26.5381 C   0  0  0  0  0  0  0  0  0  0  0  0
 14 15  1  0
  1  2  2  0
 10  9  2  0
  9  8  1  0
  8  7  2  0
  7  1  1  0
  2  3  1  0
  3  4  2  0
 13 14  2  0
 14 10  1  0
 10  2  1  0
  4  5  1  0
  5  6  2  0
  6 11  1  0
 11 12  2  0
 12 13  1  0
 13  4  1  0
M  END

$$$$
