No_804-gen_results/8p0m/2024-11-27-11-27-31/
     RDKit          3D

 31 33  0  0  0  0  0  0  0  0999 V2000
  -28.0162   -0.8135   28.8779 C   0  0  0  0  0  0  0  0  0  0  0  0
  -27.0636   -0.1189   28.6079 C   0  0  0  0  0  0  0  0  0  0  0  0
  -25.7923   -0.4302   29.0761 C   0  0  0  0  0  0  0  0  0  0  0  0
  -24.5456    0.3494   28.8225 C   0  0  0  0  0  0  0  0  0  0  0  0
  -23.2409    0.0217   29.3323 C   0  0  0  0  0  0  0  0  0  0  0  0
  -27.8820   -1.8995   29.8633 C   0  0  0  0  0  0  0  0  0  0  0  0
  -26.6526   -2.3141   30.3138 C   0  0  0  0  0  0  0  0  0  0  0  0
  -25.5153   -1.5607   29.9787 C   0  0  0  0  0  0  0  0  0  0  0  0
  -22.1645    0.7936   28.9524 C   0  0  0  0  0  0  0  0  0  0  0  0
  -22.1241    1.7484   27.9889 C   0  0  0  0  0  0  0  0  0  0  0  0
  -24.5235    1.3782   27.7946 C   0  0  0  0  0  0  0  0  0  0  0  0
  -23.3387    2.0417   27.4305 C   0  0  0  0  0  0  0  0  0  0  0  0
  -29.0500   -2.7282   30.2957 C   0  0  0  0  0  0  0  0  0  0  0  0
  -28.9890   -3.9429   30.3915 O   0  0  0  0  0  0  0  0  0  0  0  0
  -30.1347   -2.1352   30.6203 O   0  0  0  0  0  0  0  0  0  0  0  0
  -23.4503    2.9927   26.4677 O   0  0  0  0  0  0  0  0  0  0  0  0
  -24.3164    3.9418   26.5506 C   0  0  0  0  0  0  0  0  0  0  0  0
  -31.0757   -2.5530   31.1996 C   0  0  0  0  0  0  0  0  0  0  0  0
  -31.1586   -2.6238   32.5202 C   0  0  0  0  0  0  0  0  0  0  0  0
  -32.1380   -3.3164   33.0543 F   0  0  0  0  0  0  0  0  0  0  0  0
  -30.0496   -3.2547   33.0557 F   0  0  0  0  0  0  0  0  0  0  0  0
  -31.1725   -1.3976   33.0829 F   0  0  0  0  0  0  0  0  0  0  0  0
  -32.1609   -1.7303   30.6521 O   0  0  0  0  0  0  0  0  0  0  0  0
  -31.5034   -3.9643   30.5178 C   0  0  0  0  0  0  0  0  0  0  0  0
  -32.5946   -3.9570   30.2074 N   0  0  0  0  0  0  0  0  0  0  0  0
  -32.8827   -4.8077   29.0724 C   0  0  0  0  0  0  0  0  0  0  0  0
  -31.8734   -5.5792   28.5781 C   0  0  0  0  0  0  0  0  0  0  0  0
  -31.9658   -6.2416   27.3667 C   0  0  0  0  0  0  0  0  0  0  0  0
  -33.0426   -5.9458   26.5421 C   0  0  0  0  0  0  0  0  0  0  0  0
  -34.0313   -5.0555   26.9615 C   0  0  0  0  0  0  0  0  0  0  0  0
  -33.9478   -4.4451   28.1996 C   0  0  0  0  0  0  0  0  0  0  0  0
  3  4  1  0
  6 13  1  0
 13 14  2  0
 13 15  1  0
 12 16  1  0
 16 17  1  0
 15 18  1  0
 18 19  1  0
 19 20  1  0
 19 21  1  0
 19 22  1  0
 18 23  1  0
 18 24  1  0
 24 25  1  0
 25 26  1  0
 26 27  2  0
 27 28  1  0
 28 29  2  0
 29 30  1  0
 30 31  2  0
 31 26  1  0
  1  2  2  0
  2  3  1  0
  3  8  2  0
  8  7  1  0
  7  6  2  0
  6  1  1  0
  4  5  2  0
  5  9  1  0
  9 10  2  0
 10 12  1  0
 12 11  2  0
 11  4  1  0
M  END

$$$$
