No_892-gen_results/8p0m/2024-11-27-11-27-31/
     RDKit          3D

 14 15  0  0  0  0  0  0  0  0999 V2000
  -28.0162   -0.8135   28.8779 C   0  0  0  0  0  0  0  0  0  0  0  0
  -27.0636   -0.1190   28.6079 C   0  0  0  0  0  0  0  0  0  0  0  0
  -26.9716    0.7139   27.5060 C   0  0  0  0  0  0  0  0  0  0  0  0
  -25.8205    1.4909   27.1160 C   0  0  0  0  0  0  0  0  0  0  0  0
  -24.6562    1.4242   27.9180 C   0  0  0  0  0  0  0  0  0  0  0  0
  -24.6847    0.5901   29.0659 C   0  0  0  0  0  0  0  0  0  0  0  0
  -25.8099   -0.1266   29.3338 C   0  0  0  0  0  0  0  0  0  0  0  0
  -28.0445   -1.5734   30.1690 C   0  0  0  0  0  0  0  0  0  0  0  0
  -26.8172   -1.7595   30.8704 C   0  0  0  0  0  0  0  0  0  0  0  0
  -25.7477   -0.9917   30.5376 C   0  0  0  0  0  0  0  0  0  0  0  0
  -23.2729    2.3671   27.5304 Cl  0  0  0  0  0  0  0  0  0  0  0  0
  -28.0850    0.8161   26.5112 C   0  0  0  0  0  0  0  0  0  0  0  0
  -27.9487    0.8749   25.3436 O   0  0  0  0  0  0  0  0  0  0  0  0
  -29.2584    0.7525   27.0126 O   0  0  0  0  0  0  0  0  0  0  0  0
  5 11  1  0
  3 12  1  0
 12 13  2  0
 12 14  1  0
  2  3  1  0
  3  4  2  0
  4  5  1  0
  5  6  2  0
  6  7  1  0
  1  2  2  0
  2  7  1  0
  7 10  2  0
 10  9  1  0
  9  8  2  0
  8  1  1  0
M  END

$$$$
