No_904-gen_results/8p0m/2024-11-27-11-27-31/
     RDKit          3D

 11 11  0  0  0  0  0  0  0  0999 V2000
  -28.0162   -0.8135   28.8779 C   0  0  0  0  0  0  0  0  0  0  0  0
  -27.0636   -0.1189   28.6079 C   0  0  0  0  0  0  0  0  0  0  0  0
  -25.7923   -0.4302   29.0761 C   0  0  0  0  0  0  0  0  0  0  0  0
  -25.5756   -1.5654   29.9363 C   0  0  0  0  0  0  0  0  0  0  0  0
  -26.7354   -2.3004   30.2173 C   0  0  0  0  0  0  0  0  0  0  0  0
  -27.9184   -1.9537   29.7629 C   0  0  0  0  0  0  0  0  0  0  0  0
  -29.2090   -2.9956   30.2439 Cl  0  0  0  0  0  0  0  0  0  0  0  0
  -27.1188    1.1066   27.7637 C   0  0  0  0  0  0  0  0  0  0  0  0
  -26.5140    1.0434   26.7861 F   0  0  0  0  0  0  0  0  0  0  0  0
  -28.4422    1.2489   27.3990 F   0  0  0  0  0  0  0  0  0  0  0  0
  -26.8473    2.2336   28.4272 F   0  0  0  0  0  0  0  0  0  0  0  0
  6  7  1  0
  2  8  1  0
  8  9  1  0
  8 10  1  0
  8 11  1  0
  1  2  2  0
  2  3  1  0
  3  4  2  0
  4  5  1  0
  5  6  2  0
  6  1  1  0
M  END

$$$$
