No_959-gen_results/8p0m/2024-11-27-11-27-31/
     RDKit          3D

 19 20  0  0  0  0  0  0  0  0999 V2000
  -28.0162   -0.8135   28.8779 C   0  0  0  0  0  0  0  0  0  0  0  0
  -27.0636   -0.1189   28.6079 C   0  0  0  0  0  0  0  0  0  0  0  0
  -26.9287    1.1713   29.0083 C   0  0  0  0  0  0  0  0  0  0  0  0
  -25.7702    2.0341   28.6884 C   0  0  0  0  0  0  0  0  0  0  0  0
  -24.7141    1.4431   27.9188 C   0  0  0  0  0  0  0  0  0  0  0  0
  -24.8590    0.0783   27.5836 C   0  0  0  0  0  0  0  0  0  0  0  0
  -25.9647   -0.6606   27.9164 C   0  0  0  0  0  0  0  0  0  0  0  0
  -27.9821   -1.6367   30.0748 N   0  0  0  0  0  0  0  0  0  0  0  0
  -29.0318   -0.7819   28.3705 O   0  0  0  0  0  0  0  0  0  0  0  0
  -29.0339   -2.5382   30.5034 C   0  0  0  0  0  0  0  0  0  0  0  0
  -26.7209   -1.7414   30.8926 C   0  0  0  0  0  0  0  0  0  0  0  0
  -23.5122    2.1530   27.5436 C   0  0  0  0  0  0  0  0  0  0  0  0
  -22.3533    2.2536   27.8163 N   0  0  0  0  0  0  0  0  0  0  0  0
  -23.8201    2.9922   26.2575 C   0  0  0  0  0  0  0  0  0  0  0  0
  -29.4776   -2.2865   31.8159 C   0  0  0  0  0  0  0  0  0  0  0  0
  -28.8664   -1.1713   32.3975 C   0  0  0  0  0  0  0  0  0  0  0  0
  -27.3617   -1.2021   32.4297 C   0  0  0  0  0  0  0  0  0  0  0  0
  -26.4613   -0.5851   33.2388 C   0  0  0  0  0  0  0  0  0  0  0  0
  -26.6014   -0.7232   34.3349 O   0  0  0  0  0  0  0  0  0  0  0  0
  1  2  1  0
  1  8  1  0
  1  9  2  0
  8 10  1  0
  8 11  1  0
  5 12  1  0
 12 13  2  0
 12 14  1  0
 10 15  1  0
 15 16  1  0
 11 17  1  0
 16 17  1  0
 17 18  1  0
 18 19  2  0
  2  3  2  0
  3  4  1  0
  4  5  2  0
  5  6  1  0
  6  7  2  0
  7  2  1  0
M  END

$$$$
