No_930-gen_results/8p0m/2024-11-27-11-27-31/
     RDKit          3D

  8  7  0  0  0  0  0  0  0  0999 V2000
  -28.0727   -1.2542   28.5316 F   0  0  0  0  0  0  0  0  0  0  0  0
  -27.3591   -0.3792   28.7224 C   0  0  0  0  0  0  0  0  0  0  0  0
  -26.3180   -0.6608   29.1159 F   0  0  0  0  0  0  0  0  0  0  0  0
  -27.8833    0.5474   29.6184 F   0  0  0  0  0  0  0  0  0  0  0  0
  -27.2717    0.3996   27.3696 C   0  0  0  0  0  0  0  0  0  0  0  0
  -28.2415    0.6327   26.5727 C   0  0  0  0  0  0  0  0  0  0  0  0
  -25.9231    0.9623   27.0565 C   0  0  0  0  0  0  0  0  0  0  0  0
  -24.8561    0.7174   27.8580 C   0  0  0  0  0  0  0  0  0  0  0  0
  1  2  1  0
  2  3  1  0
  2  4  1  0
  2  5  1  0
  5  6  1  0
  5  7  1  0
  7  8  1  0
M  END

$$$$
