No_957-gen_results/8p0m/2024-11-27-11-27-31/
     RDKit          3D

 25 26  0  0  0  0  0  0  0  0999 V2000
  -28.0162   -0.8135   28.8779 C   0  0  0  0  0  0  0  0  0  0  0  0
  -28.4690   -0.7850   29.8287 C   0  0  0  0  0  0  0  0  0  0  0  0
  -26.5042   -0.7777   28.8766 C   0  0  0  0  0  0  0  0  0  0  0  0
  -25.8305   -1.6807   29.6849 C   0  0  0  0  0  0  0  0  0  0  0  0
  -28.1490   -1.8854   30.9031 C   0  0  0  0  0  0  0  0  0  0  0  0
  -26.6460   -1.9561   31.0330 C   0  0  0  0  0  0  0  0  0  0  0  0
  -28.8423   -2.6205   31.5877 O   0  0  0  0  0  0  0  0  0  0  0  0
  -25.6851   -0.3320   27.7175 C   0  0  0  0  0  0  0  0  0  0  0  0
  -26.0673    0.4324   26.7661 C   0  0  0  0  0  0  0  0  0  0  0  0
  -25.6003    1.0400   26.0557 C   0  0  0  0  0  0  0  0  0  0  0  0
  -24.5399    1.6193   26.0263 C   0  0  0  0  0  0  0  0  0  0  0  0
  -23.6964    1.7745   26.9137 C   0  0  0  0  0  0  0  0  0  0  0  0
  -23.4907    0.7624   28.0553 C   0  0  0  0  0  0  0  0  0  0  0  0
  -24.2404   -0.6316   27.9518 C   0  0  0  0  0  0  0  0  0  0  0  0
  -29.8672   -0.5201   29.9617 O   0  0  0  0  0  0  0  0  0  0  0  0
  -30.3455    0.4060   29.2645 C   0  0  0  0  0  0  0  0  0  0  0  0
  -30.1533    1.7307   29.5954 C   0  0  0  0  0  0  0  0  0  0  0  0
  -29.9195    2.5036   28.7775 O   0  0  0  0  0  0  0  0  0  0  0  0
  -30.0719    1.9683   30.8767 O   0  0  0  0  0  0  0  0  0  0  0  0
  -31.8308    0.1594   29.1026 C   0  0  0  0  0  0  0  0  0  0  0  0
  -32.3734    0.9721   28.6438 O   0  0  0  0  0  0  0  0  0  0  0  0
  -32.3167   -0.8088   29.7297 O   0  0  0  0  0  0  0  0  0  0  0  0
  -22.2815    0.7415   28.8489 C   0  0  0  0  0  0  0  0  0  0  0  0
  -22.4364    0.4189   30.0145 O   0  0  0  0  0  0  0  0  0  0  0  0
  -21.2666    1.4084   28.4691 O   0  0  0  0  0  0  0  0  0  0  0  0
  1  2  1  0
  1  3  1  0
  3  4  1  0
  2  5  1  0
  4  6  1  0
  5  6  1  0
  5  7  2  0
  3  8  1  0
  8  9  2  0
  9 10  1  0
 10 11  2  0
 11 12  1  0
 12 13  2  0
  8 14  1  0
 13 14  1  0
  2 15  1  0
 15 16  1  0
 16 17  1  0
 17 18  2  0
 17 19  1  0
 16 20  1  0
 20 21  2  0
 20 22  1  0
 13 23  1  0
 23 24  1  0
 23 25  2  0
M  END

$$$$
