No_90-gen_results/8p0m/2024-11-27-11-27-31/
     RDKit          3D

 12 12  0  0  0  0  0  0  0  0999 V2000
  -28.0162   -0.8135   28.8779 C   0  0  0  0  0  0  0  0  0  0  0  0
  -28.4690   -0.7850   29.8287 C   0  0  0  0  0  0  0  0  0  0  0  0
  -26.5042   -0.7777   28.8766 C   0  0  0  0  0  0  0  0  0  0  0  0
  -25.8103   -0.8531   30.1028 C   0  0  0  0  0  0  0  0  0  0  0  0
  -30.0136   -0.8410   29.8508 C   0  0  0  0  0  0  0  0  0  0  0  0
  -26.5670   -0.8850   31.2517 C   0  0  0  0  0  0  0  0  0  0  0  0
  -27.9411   -0.9069   31.1850 C   0  0  0  0  0  0  0  0  0  0  0  0
  -30.4357   -0.5913   28.8839 F   0  0  0  0  0  0  0  0  0  0  0  0
  -30.4734   -0.0210   30.8636 F   0  0  0  0  0  0  0  0  0  0  0  0
  -30.4283   -2.1051   30.2512 F   0  0  0  0  0  0  0  0  0  0  0  0
  -25.5008   -0.6831   27.4735 Cl  0  0  0  0  0  0  0  0  0  0  0  0
  -24.1122   -0.7930   30.1941 Cl  0  0  0  0  0  0  0  0  0  0  0  0
  2  5  1  0
  5  8  1  0
  5  9  1  0
  5 10  1  0
  3 11  1  0
  4 12  1  0
  1  2  2  0
  2  7  1  0
  7  6  2  0
  6  4  1  0
  4  3  2  0
  3  1  1  0
M  END

$$$$
