No_921-gen_results/8p0m/2024-11-27-11-27-31/
     RDKit          3D

 18 19  0  0  0  0  0  0  0  0999 V2000
  -28.0162   -0.8135   28.8779 C   0  0  0  0  0  0  0  0  0  0  0  0
  -27.0636   -0.1189   28.6079 C   0  0  0  0  0  0  0  0  0  0  0  0
  -25.7923   -0.4302   29.0761 C   0  0  0  0  0  0  0  0  0  0  0  0
  -25.5681   -1.2410   29.7572 C   0  0  0  0  0  0  0  0  0  0  0  0
  -24.2377   -1.6686   30.3647 C   0  0  0  0  0  0  0  0  0  0  0  0
  -27.8484   -1.8924   29.8409 C   0  0  0  0  0  0  0  0  0  0  0  0
  -26.5620   -2.1768   30.2392 C   0  0  0  0  0  0  0  0  0  0  0  0
  -23.2025   -0.5721   30.3100 C   0  0  0  0  0  0  0  0  0  0  0  0
  -23.1736    0.2809   29.1966 C   0  0  0  0  0  0  0  0  0  0  0  0
  -24.5895    0.5932   28.6967 C   0  0  0  0  0  0  0  0  0  0  0  0
  -24.6628    1.6588   27.7192 C   0  0  0  0  0  0  0  0  0  0  0  0
  -24.9148    2.8665   28.2328 C   0  0  0  0  0  0  0  0  0  0  0  0
  -24.6052    1.3273   26.3567 C   0  0  0  0  0  0  0  0  0  0  0  0
  -24.9093    3.2173   29.4436 O   0  0  0  0  0  0  0  0  0  0  0  0
  -24.9506    4.0266   27.2142 C   0  0  0  0  0  0  0  0  0  0  0  0
  -24.8057    3.7991   25.9525 O   0  0  0  0  0  0  0  0  0  0  0  0
  -25.3093    5.2035   27.7575 N   0  0  0  0  0  0  0  0  0  0  0  0
  -25.3229    6.3711   26.8795 C   0  0  0  0  0  0  0  0  0  0  0  0
 10 11  1  0
 11 12  1  0
 11 13  1  0
 12 14  2  0
 12 15  1  0
 15 16  2  0
 15 17  1  0
 17 18  1  0
  4  5  2  0
  5  8  1  0
  8  9  2  0
  9 10  1  0
 10  3  2  0
  1  2  2  0
  2  3  1  0
  3  4  1  0
  4  7  1  0
  7  6  2  0
  6  1  1  0
M  END

$$$$
