No_911-gen_results/8p0m/2024-11-27-11-27-31/
     RDKit          3D

 18 19  0  0  0  0  0  0  0  0999 V2000
  -28.0162   -0.8135   28.8779 C   0  0  0  0  0  0  0  0  0  0  0  0
  -27.0636   -0.1189   28.6079 C   0  0  0  0  0  0  0  0  0  0  0  0
  -25.7923   -0.4302   29.0761 C   0  0  0  0  0  0  0  0  0  0  0  0
  -24.5456    0.3494   28.8225 C   0  0  0  0  0  0  0  0  0  0  0  0
  -24.6586    1.4196   27.8878 C   0  0  0  0  0  0  0  0  0  0  0  0
  -25.9471    1.6811   27.3792 C   0  0  0  0  0  0  0  0  0  0  0  0
  -27.0439    0.9739   27.6871 C   0  0  0  0  0  0  0  0  0  0  0  0
  -29.1882   -0.1472   29.0918 N   0  0  0  0  0  0  0  0  0  0  0  0
  -30.2017   -0.7833   29.7303 C   0  0  0  0  0  0  0  0  0  0  0  0
  -23.4507    2.1524   27.6005 C   0  0  0  0  0  0  0  0  0  0  0  0
  -22.5166    1.8358   27.2546 N   0  0  0  0  0  0  0  0  0  0  0  0
  -23.7879    3.4462   27.1887 O   0  0  0  0  0  0  0  0  0  0  0  0
  -31.5099   -0.4849   29.4400 C   0  0  0  0  0  0  0  0  0  0  0  0
  -29.9424   -1.7944   30.7498 C   0  0  0  0  0  0  0  0  0  0  0  0
  -31.0178   -2.5028   31.3583 C   0  0  0  0  0  0  0  0  0  0  0  0
  -32.5584   -1.2192   30.0991 C   0  0  0  0  0  0  0  0  0  0  0  0
  -32.2770   -2.1406   31.0639 C   0  0  0  0  0  0  0  0  0  0  0  0
  -27.8440   -1.8295   29.5978 O   0  0  0  0  0  0  0  0  0  0  0  0
  1  2  1  0
  1  8  1  0
  8  9  1  0
  5 10  1  0
 10 11  1  0
 10 12  2  0
  1 18  2  0
  2  3  2  0
  3  4  1  0
  4  5  2  0
  5  6  1  0
  6  7  2  0
  7  2  1  0
  9 13  2  0
 13 16  1  0
 16 17  2  0
 17 15  1  0
 15 14  2  0
 14  9  1  0
M  END

$$$$
