No_993-gen_results/8p0m/2024-11-27-11-27-31/
     RDKit          3D

 21 22  0  0  0  0  0  0  0  0999 V2000
  -28.0162   -0.8135   28.8779 C   0  0  0  0  0  0  0  0  0  0  0  0
  -28.4690   -0.7850   29.8287 C   0  0  0  0  0  0  0  0  0  0  0  0
  -26.5455   -0.8762   28.8500 C   0  0  0  0  0  0  0  0  0  0  0  0
  -25.8041   -1.0324   30.0571 C   0  0  0  0  0  0  0  0  0  0  0  0
  -27.9437   -0.9869   31.2075 C   0  0  0  0  0  0  0  0  0  0  0  0
  -26.5825   -1.0386   31.2231 C   0  0  0  0  0  0  0  0  0  0  0  0
  -30.2809   -0.7232   29.8834 Cl  0  0  0  0  0  0  0  0  0  0  0  0
  -24.3690   -1.1186   30.0640 C   0  0  0  0  0  0  0  0  0  0  0  0
  -23.6811    0.1519   30.0835 C   0  0  0  0  0  0  0  0  0  0  0  0
  -22.4350    0.2823   29.3993 C   0  0  0  0  0  0  0  0  0  0  0  0
  -24.2129    1.3026   30.7578 C   0  0  0  0  0  0  0  0  0  0  0  0
  -21.5762   -0.5814   29.3665 N   0  0  0  0  0  0  0  0  0  0  0  0
  -22.1887    1.3970   28.7600 O   0  0  0  0  0  0  0  0  0  0  0  0
  -25.7319   -0.7849   27.6050 C   0  0  0  0  0  0  0  0  0  0  0  0
  -26.1086    0.2622   26.6634 C   0  0  0  0  0  0  0  0  0  0  0  0
  -25.4906    0.3529   25.4728 C   0  0  0  0  0  0  0  0  0  0  0  0
  -27.0629    1.2493   26.9774 C   0  0  0  0  0  0  0  0  0  0  0  0
  -27.3088    2.2550   26.0345 C   0  0  0  0  0  0  0  0  0  0  0  0
  -25.7494    1.2695   24.5145 C   0  0  0  0  0  0  0  0  0  0  0  0
  -26.7150    2.2014   24.8145 C   0  0  0  0  0  0  0  0  0  0  0  0
  -24.2679    1.4416   31.9209 O   0  0  0  0  0  0  0  0  0  0  0  0
  2  7  1  0
  4  8  1  0
  8  9  1  0
  9 10  1  0
  9 11  1  0
 10 12  1  0
 10 13  2  0
  3 14  1  0
 14 15  1  0
 11 21  2  0
  1  2  2  0
  2  5  1  0
  5  6  2  0
  6  4  1  0
  4  3  2  0
  3  1  1  0
 15 16  2  0
 16 19  1  0
 19 20  2  0
 20 18  1  0
 18 17  2  0
 17 15  1  0
M  END

$$$$
