No_992-gen_results/8p0m/2024-11-27-11-27-31/
     RDKit          3D

 22 24  0  0  0  0  0  0  0  0999 V2000
  -28.0162   -0.8135   28.8779 C   0  0  0  0  0  0  0  0  0  0  0  0
  -27.0636   -0.1189   28.6079 C   0  0  0  0  0  0  0  0  0  0  0  0
  -26.9287    1.1713   29.0083 C   0  0  0  0  0  0  0  0  0  0  0  0
  -25.7702    2.0341   28.6884 C   0  0  0  0  0  0  0  0  0  0  0  0
  -24.7141    1.4431   27.9188 C   0  0  0  0  0  0  0  0  0  0  0  0
  -24.8590    0.0783   27.5836 C   0  0  0  0  0  0  0  0  0  0  0  0
  -25.9647   -0.6606   27.9164 C   0  0  0  0  0  0  0  0  0  0  0  0
  -28.0410   -1.4978   30.2732 C   0  0  0  0  0  0  0  0  0  0  0  0
  -28.8728   -1.7242   30.8975 C   0  0  0  0  0  0  0  0  0  0  0  0
  -30.2264   -1.7160   30.3138 C   0  0  0  0  0  0  0  0  0  0  0  0
  -30.3635   -1.0722   29.1485 C   0  0  0  0  0  0  0  0  0  0  0  0
  -29.3202   -0.5162   28.6035 C   0  0  0  0  0  0  0  0  0  0  0  0
  -23.5038    2.1253   27.5706 C   0  0  0  0  0  0  0  0  0  0  0  0
  -22.7899    2.4731   28.2591 O   0  0  0  0  0  0  0  0  0  0  0  0
  -23.4742    2.5206   26.2525 N   0  0  0  0  0  0  0  0  0  0  0  0
  -29.4650    0.1412   27.3982 O   0  0  0  0  0  0  0  0  0  0  0  0
  -29.0853    1.2637   26.9951 C   0  0  0  0  0  0  0  0  0  0  0  0
  -30.0290    1.8516   26.0647 C   0  0  0  0  0  0  0  0  0  0  0  0
  -27.9192    1.9708   26.5727 C   0  0  0  0  0  0  0  0  0  0  0  0
  -27.7058    2.6632   25.6548 C   0  0  0  0  0  0  0  0  0  0  0  0
  -29.7872    2.7468   25.4116 C   0  0  0  0  0  0  0  0  0  0  0  0
  -28.6684    3.3901   25.0600 C   0  0  0  0  0  0  0  0  0  0  0  0
  1  2  1  0
  5 13  1  0
 13 14  2  0
 13 15  1  0
 12 16  1  0
 16 17  1  0
  2  3  2  0
  3  4  1  0
  4  5  2  0
  5  6  1  0
  6  7  2  0
  7  2  1  0
 17 18  2  0
 18 21  1  0
 21 22  2  0
 22 20  1  0
 20 19  2  0
 19 17  1  0
  1  8  2  0
  8  9  1  0
  9 10  2  0
 10 11  1  0
 11 12  2  0
 12  1  1  0
M  END

$$$$
