No_936-gen_results/8p0m/2024-11-27-11-27-31/
     RDKit          3D

 35 37  0  0  0  0  0  0  0  0999 V2000
  -28.0162   -0.8135   28.8779 C   0  0  0  0  0  0  0  0  0  0  0  0
  -27.0636   -0.1189   28.6079 C   0  0  0  0  0  0  0  0  0  0  0  0
  -25.7923   -0.4302   29.0761 C   0  0  0  0  0  0  0  0  0  0  0  0
  -25.5756   -1.5654   29.9363 C   0  0  0  0  0  0  0  0  0  0  0  0
  -26.7354   -2.3004   30.2173 C   0  0  0  0  0  0  0  0  0  0  0  0
  -27.9184   -1.9537   29.7629 C   0  0  0  0  0  0  0  0  0  0  0  0
  -27.1463    1.2916   27.6407 Cl  0  0  0  0  0  0  0  0  0  0  0  0
  -29.0010   -2.7139   30.1143 O   0  0  0  0  0  0  0  0  0  0  0  0
  -24.5175    0.3583   28.7657 C   0  0  0  0  0  0  0  0  0  0  0  0
  -24.2646    1.4730   29.5639 C   0  0  0  0  0  0  0  0  0  0  0  0
  -23.0809    2.2312   29.3079 C   0  0  0  0  0  0  0  0  0  0  0  0
  -22.3431    1.9434   28.1199 C   0  0  0  0  0  0  0  0  0  0  0  0
  -22.6909    0.9639   27.2791 C   0  0  0  0  0  0  0  0  0  0  0  0
  -23.7680    0.1607   27.6113 C   0  0  0  0  0  0  0  0  0  0  0  0
  -29.3973   -2.7343   31.4410 C   0  0  0  0  0  0  0  0  0  0  0  0
  -30.7645   -2.5494   31.5790 C   0  0  0  0  0  0  0  0  0  0  0  0
  -31.1973   -2.4968   32.8285 C   0  0  0  0  0  0  0  0  0  0  0  0
  -30.7496   -2.2906   33.9612 Cl  0  0  0  0  0  0  0  0  0  0  0  0
  -32.5113   -1.8538   32.7769 F   0  0  0  0  0  0  0  0  0  0  0  0
  -31.4756   -2.7030   30.4658 N   0  0  0  0  0  0  0  0  0  0  0  0
  -31.1927   -3.3997   29.4066 C   0  0  0  0  0  0  0  0  0  0  0  0
  -32.2397   -4.4860   29.1252 C   0  0  0  0  0  0  0  0  0  0  0  0
  -31.9112   -5.3403   28.1035 C   0  0  0  0  0  0  0  0  0  0  0  0
  -32.2602   -5.1012   26.8393 C   0  0  0  0  0  0  0  0  0  0  0  0
  -31.1207   -6.5282   28.3451 C   0  0  0  0  0  0  0  0  0  0  0  0
  -33.4007   -4.9266   26.6006 O   0  0  0  0  0  0  0  0  0  0  0  0
  -30.9767   -6.8695   29.7507 C   0  0  0  0  0  0  0  0  0  0  0  0
  -31.2675   -8.1784   30.2800 C   0  0  0  0  0  0  0  0  0  0  0  0
  -31.0282   -8.4697   31.6125 C   0  0  0  0  0  0  0  0  0  0  0  0
  -30.5535   -7.4313   32.4772 C   0  0  0  0  0  0  0  0  0  0  0  0
  -30.3312   -6.1327   31.9616 C   0  0  0  0  0  0  0  0  0  0  0  0
  -30.4952   -5.8944   30.7320 C   0  0  0  0  0  0  0  0  0  0  0  0
  -31.6157   -8.9857   29.4261 F   0  0  0  0  0  0  0  0  0  0  0  0
  -31.2952   -4.9298   25.9371 O   0  0  0  0  0  0  0  0  0  0  0  0
  -24.9544    1.7574   30.8582 C   0  0  0  0  0  0  0  0  0  0  0  0
  2  7  1  0
  6  8  1  0
  3  9  1  0
  8 15  1  0
 15 16  1  0
 16 17  1  0
 17 18  1  0
 17 19  1  0
 16 20  2  3
 20 21  1  0
 21 22  1  0
 22 23  1  0
 23 24  1  0
 23 25  1  0
 24 26  2  0
 25 27  1  0
 28 33  1  0
 24 34  1  0
 10 35  1  0
  1  2  2  0
  2  3  1  0
  3  4  2  0
  4  5  1  0
  5  6  2  0
  6  1  1  0
 27 28  2  0
 28 29  1  0
 29 30  2  0
 30 31  1  0
 31 32  2  0
 32 27  1  0
  9 10  2  0
 10 11  1  0
 11 12  2  0
 12 13  1  0
 13 14  2  0
 14  9  1  0
M  END

$$$$
