No_948-gen_results/8p0m/2024-11-27-11-27-31/
     RDKit          3D

  9  9  0  0  0  0  0  0  0  0999 V2000
  -28.1229   -1.3353   28.4874 O   0  0  0  0  0  0  0  0  0  0  0  0
  -27.4806   -0.4044   28.7094 C   0  0  0  0  0  0  0  0  0  0  0  0
  -27.1904    0.2460   29.5268 C   0  0  0  0  0  0  0  0  0  0  0  0
  -26.8157    0.1371   27.4262 N   0  0  0  0  0  0  0  0  0  0  0  0
  -27.5733    0.0576   30.8590 N   0  0  0  0  0  0  0  0  0  0  0  0
  -25.9053    0.9508   27.4485 C   0  0  0  0  0  0  0  0  0  0  0  0
  -25.6130    1.6889   28.6007 C   0  0  0  0  0  0  0  0  0  0  0  0
  -26.1683    1.3291   29.7384 C   0  0  0  0  0  0  0  0  0  0  0  0
  -28.4797   -0.6792   31.0495 C   0  0  0  0  0  0  0  0  0  0  0  0
  1  2  2  0
  2  3  1  0
  2  4  1  0
  3  5  1  0
  6  7  1  0
  3  8  1  0
  7  8  1  0
  5  9  1  0
  6  4  1  0
M  END

$$$$
