No_944-gen_results/8p0m/2024-11-27-11-27-31/
     RDKit          3D

  5  4  0  0  0  0  0  0  0  0999 V2000
  -28.0727   -1.2542   28.5316 F   0  0  0  0  0  0  0  0  0  0  0  0
  -27.0607   -0.6291   28.8721 C   0  0  0  0  0  0  0  0  0  0  0  0
  -26.4722   -0.5474   28.0086 F   0  0  0  0  0  0  0  0  0  0  0  0
  -27.3684    0.5937   29.4292 F   0  0  0  0  0  0  0  0  0  0  0  0
  -26.4776   -1.3386   29.8999 F   0  0  0  0  0  0  0  0  0  0  0  0
  1  2  1  0
  2  3  1  0
  2  4  1  0
  2  5  1  0
M  END

$$$$
