No_934-gen_results/8p0m/2024-11-27-11-27-31/
     RDKit          3D

 35 37  0  0  0  0  0  0  0  0999 V2000
  -28.0162   -0.8135   28.8779 C   0  0  0  0  0  0  0  0  0  0  0  0
  -27.0636   -0.1190   28.6079 C   0  0  0  0  0  0  0  0  0  0  0  0
  -25.7923   -0.4302   29.0761 C   0  0  0  0  0  0  0  0  0  0  0  0
  -24.5456    0.3494   28.8225 C   0  0  0  0  0  0  0  0  0  0  0  0
  -24.6586    1.4196   27.8878 C   0  0  0  0  0  0  0  0  0  0  0  0
  -25.9471    1.6811   27.3792 C   0  0  0  0  0  0  0  0  0  0  0  0
  -27.0439    0.9739   27.6871 C   0  0  0  0  0  0  0  0  0  0  0  0
  -28.6597   -0.4600   30.2006 C   0  0  0  0  0  0  0  0  0  0  0  0
  -29.6723   -1.2105   30.6653 N   0  0  0  0  0  0  0  0  0  0  0  0
  -23.4502    2.1420   27.5921 C   0  0  0  0  0  0  0  0  0  0  0  0
  -22.5149    1.8201   27.2250 N   0  0  0  0  0  0  0  0  0  0  0  0
  -23.7723    3.4576   27.2085 O   0  0  0  0  0  0  0  0  0  0  0  0
  -29.8216   -1.6252   31.7892 C   0  0  0  0  0  0  0  0  0  0  0  0
  -29.2323   -0.9076   32.8869 C   0  0  0  0  0  0  0  0  0  0  0  0
  -28.1344   -0.0522   32.4922 C   0  0  0  0  0  0  0  0  0  0  0  0
  -27.7651    0.0356   31.1840 C   0  0  0  0  0  0  0  0  0  0  0  0
  -30.6159   -1.7294   29.6274 C   0  0  0  0  0  0  0  0  0  0  0  0
  -32.0041   -1.4797   30.0181 C   0  0  0  0  0  0  0  0  0  0  0  0
  -32.5098   -0.7777   29.2483 C   0  0  0  0  0  0  0  0  0  0  0  0
  -32.2492   -0.8327   27.8592 C   0  0  0  0  0  0  0  0  0  0  0  0
  -31.0366   -1.2206   27.4758 C   0  0  0  0  0  0  0  0  0  0  0  0
  -30.2447   -1.1069   28.4332 O   0  0  0  0  0  0  0  0  0  0  0  0
  -33.3393   -1.5965   27.1096 O   0  0  0  0  0  0  0  0  0  0  0  0
  -32.3836    0.6555   29.6595 O   0  0  0  0  0  0  0  0  0  0  0  0
  -30.9521   -2.2397   26.7771 O   0  0  0  0  0  0  0  0  0  0  0  0
  -32.5784   -2.8236   30.1654 O   0  0  0  0  0  0  0  0  0  0  0  0
  -33.3965    1.4770   29.9867 C   0  0  0  0  0  0  0  0  0  0  0  0
  -33.2973    2.4589   30.2791 C   0  0  0  0  0  0  0  0  0  0  0  0
  -31.9172    3.1425   30.4754 C   0  0  0  0  0  0  0  0  0  0  0  0
  -31.5116    4.2085   31.1513 N   0  0  0  0  0  0  0  0  0  0  0  0
  -30.2652    4.5620   31.2757 C   0  0  0  0  0  0  0  0  0  0  0  0
  -30.9131    2.5696   29.9138 O   0  0  0  0  0  0  0  0  0  0  0  0
  -32.9565   -3.3028   31.3749 C   0  0  0  0  0  0  0  0  0  0  0  0
  -33.1477   -4.6407   31.3498 C   0  0  0  0  0  0  0  0  0  0  0  0
  -33.4495   -5.1724   32.5601 C   0  0  0  0  0  0  0  0  0  0  0  0
  1  2  1  0
  1  8  1  0
  8  9  1  0
  5 10  1  0
 10 11  2  0
 10 12  1  0
  9 13  1  0
 14 15  1  0
  8 16  1  0
 15 16  1  0
  9 17  1  0
 17 18  1  0
 18 19  1  0
 19 20  1  0
 20 21  2  0
 17 22  1  0
 21 22  1  0
 20 23  1  0
 19 24  1  0
 21 25  1  0
 18 26  1  0
 24 27  1  0
 27 28  2  3
 28 29  1  0
 29 30  1  0
 30 31  1  0
 29 32  2  0
 26 33  1  0
 33 34  2  3
 34 35  1  0
 14 13  1  0
  2  3  2  0
  3  4  1  0
  4  5  2  0
  5  6  1  0
  6  7  2  0
  7  2  1  0
M  END

$$$$
