No_903-gen_results/8p0m/2024-11-27-11-27-31/
     RDKit          3D

 35 39  0  0  0  0  0  0  0  0999 V2000
  -28.0162   -0.8135   28.8779 C   0  0  0  0  0  0  0  0  0  0  0  0
  -28.4690   -0.7850   29.8287 C   0  0  0  0  0  0  0  0  0  0  0  0
  -27.1356    0.2359   28.5352 C   0  0  0  0  0  0  0  0  0  0  0  0
  -26.3351    0.2900   27.2835 C   0  0  0  0  0  0  0  0  0  0  0  0
  -28.3692    0.1957   30.9236 C   0  0  0  0  0  0  0  0  0  0  0  0
  -27.5158    1.2655   30.6540 C   0  0  0  0  0  0  0  0  0  0  0  0
  -26.8411    1.2942   29.4761 C   0  0  0  0  0  0  0  0  0  0  0  0
  -25.6774    1.5198   26.9774 C   0  0  0  0  0  0  0  0  0  0  0  0
  -24.6511    1.5543   26.2096 C   0  0  0  0  0  0  0  0  0  0  0  0
  -23.8845    2.8924   26.0981 C   0  0  0  0  0  0  0  0  0  0  0  0
  -24.3714    4.0010   26.8162 C   0  0  0  0  0  0  0  0  0  0  0  0
  -25.5144    3.8796   27.5451 C   0  0  0  0  0  0  0  0  0  0  0  0
  -26.1260    2.6350   27.7528 C   0  0  0  0  0  0  0  0  0  0  0  0
  -26.3540    2.5804   29.2076 N   0  0  0  0  0  0  0  0  0  0  0  0
  -26.1757    3.5563   30.1239 C   0  0  0  0  0  0  0  0  0  0  0  0
  -26.9067    4.7133   29.9666 C   0  0  0  0  0  0  0  0  0  0  0  0
  -28.0398    4.9138   29.9367 C   0  0  0  0  0  0  0  0  0  0  0  0
  -28.7426    6.1254   29.7155 C   0  0  0  0  0  0  0  0  0  0  0  0
  -27.9609    7.2840   29.5680 C   0  0  0  0  0  0  0  0  0  0  0  0
  -26.5875    7.1795   29.5677 C   0  0  0  0  0  0  0  0  0  0  0  0
  -25.9850    5.9596   29.8028 C   0  0  0  0  0  0  0  0  0  0  0  0
  -26.3099   -0.6281   26.5051 O   0  0  0  0  0  0  0  0  0  0  0  0
  -25.3754    3.3312   31.0946 O   0  0  0  0  0  0  0  0  0  0  0  0
  -30.2158    6.2255   29.6975 C   0  0  0  0  0  0  0  0  0  0  0  0
  -30.8758    5.8245   29.0021 N   0  0  0  0  0  0  0  0  0  0  0  0
  -32.2669    5.8964   29.0899 C   0  0  0  0  0  0  0  0  0  0  0  0
  -30.7541    6.9191   30.9163 C   0  0  0  0  0  0  0  0  0  0  0  0
  -32.0795    7.0416   31.0886 C   0  0  0  0  0  0  0  0  0  0  0  0
  -32.8699    6.5082   30.1030 C   0  0  0  0  0  0  0  0  0  0  0  0
  -34.3421    6.5634   30.1472 C   0  0  0  0  0  0  0  0  0  0  0  0
  -35.1377    6.1510   29.4546 O   0  0  0  0  0  0  0  0  0  0  0  0
  -34.8005    7.3169   31.3258 N   0  0  0  0  0  0  0  0  0  0  0  0
  -36.1971    7.4615   31.5220 C   0  0  0  0  0  0  0  0  0  0  0  0
  -36.4309    7.9975   32.6444 C   0  0  0  0  0  0  0  0  0  0  0  0
  -35.4509    8.4963   33.5517 C   0  0  0  0  0  0  0  0  0  0  0  0
  3  4  1  0
  4  8  1  0
  7 14  1  0
 13 14  1  0
 14 15  1  0
 15 16  1  0
  4 22  2  0
 15 23  2  0
 18 24  1  0
 29 30  1  0
 30 31  2  0
 30 32  1  0
 32 33  1  0
 33 34  2  3
 34 35  1  0
  1  2  2  0
  2  5  1  0
  5  6  2  0
  6  7  1  0
  7  3  2  0
  3  1  1  0
 24 25  2  0
 25 26  1  0
 26 29  2  0
 29 28  1  0
 28 27  2  0
 27 24  1  0
  8  9  2  0
  9 10  1  0
 10 11  2  0
 11 12  1  0
 12 13  2  0
 13  8  1  0
 16 17  2  0
 17 18  1  0
 18 19  2  0
 19 20  1  0
 20 21  2  0
 21 16  1  0
M  END

$$$$
