No_917-gen_results/8p0m/2024-11-27-11-27-31/
     RDKit          3D

 20 22  0  0  0  0  0  0  0  0999 V2000
  -28.0162   -0.8135   28.8779 C   0  0  0  0  0  0  0  0  0  0  0  0
  -28.4690   -0.7850   29.8287 C   0  0  0  0  0  0  0  0  0  0  0  0
  -26.5455   -0.8762   28.8500 C   0  0  0  0  0  0  0  0  0  0  0  0
  -25.8041   -1.0324   30.0571 C   0  0  0  0  0  0  0  0  0  0  0  0
  -26.5373   -1.0386   31.2171 C   0  0  0  0  0  0  0  0  0  0  0  0
  -27.8843   -0.9532   31.1862 C   0  0  0  0  0  0  0  0  0  0  0  0
  -24.3655   -1.1134   30.0483 C   0  0  0  0  0  0  0  0  0  0  0  0
  -23.6925    0.1188   29.9185 C   0  0  0  0  0  0  0  0  0  0  0  0
  -22.3936    0.1820   29.3480 C   0  0  0  0  0  0  0  0  0  0  0  0
  -21.7660   -1.0836   29.1002 C   0  0  0  0  0  0  0  0  0  0  0  0
  -23.7787   -2.0456   28.9811 C   0  0  0  0  0  0  0  0  0  0  0  0
  -22.4327   -2.0864   28.9056 N   0  0  0  0  0  0  0  0  0  0  0  0
  -23.8619   -1.7572   31.4811 C   0  0  0  0  0  0  0  0  0  0  0  0
  -24.2632    1.3828   30.4970 C   0  0  0  0  0  0  0  0  0  0  0  0
  -24.2541    1.6714   31.6209 O   0  0  0  0  0  0  0  0  0  0  0  0
  -24.5084    2.3320   29.5273 N   0  0  0  0  0  0  0  0  0  0  0  0
  -25.2212    3.6097   29.8432 C   0  0  0  0  0  0  0  0  0  0  0  0
  -25.7903    4.1666   28.6171 C   0  0  0  0  0  0  0  0  0  0  0  0
  -24.5948    2.1320   28.0411 C   0  0  0  0  0  0  0  0  0  0  0  0
  -25.2963    3.2523   27.5383 C   0  0  0  0  0  0  0  0  0  0  0  0
  4  7  1  0
  7  8  1  0
  9 10  1  0
  7 11  1  0
 10 12  1  0
  7 13  1  0
  8 14  1  0
 14 15  2  0
 14 16  1  0
 16 17  1  0
 17 18  2  0
 16 19  1  0
 18 20  1  0
 19 20  2  0
  8  9  1  0
 12 11  1  0
  1  2  2  0
  2  6  1  0
  6  5  2  0
  5  4  1  0
  4  3  2  0
  3  1  1  0
M  END

$$$$
