No_955-gen_results/8p0m/2024-11-27-11-27-31/
     RDKit          3D

 23 25  0  0  0  0  0  0  0  0999 V2000
  -28.0162   -0.8135   28.8779 C   0  0  0  0  0  0  0  0  0  0  0  0
  -28.4690   -0.7850   29.8287 C   0  0  0  0  0  0  0  0  0  0  0  0
  -27.1356    0.2359   28.5352 C   0  0  0  0  0  0  0  0  0  0  0  0
  -26.3351    0.2900   27.2835 C   0  0  0  0  0  0  0  0  0  0  0  0
  -29.3807   -1.9134   30.3549 C   0  0  0  0  0  0  0  0  0  0  0  0
  -28.2295    0.3010   30.9036 C   0  0  0  0  0  0  0  0  0  0  0  0
  -26.4076   -0.2207   26.3599 C   0  0  0  0  0  0  0  0  0  0  0  0
  -25.4719   -0.0051   25.1693 C   0  0  0  0  0  0  0  0  0  0  0  0
  -27.4401    1.3324   30.6406 C   0  0  0  0  0  0  0  0  0  0  0  0
  -26.7846    1.3318   29.4694 C   0  0  0  0  0  0  0  0  0  0  0  0
  -24.4514    0.7934   25.5074 C   0  0  0  0  0  0  0  0  0  0  0  0
  -24.9906    1.1632   27.1549 C   0  0  0  0  0  0  0  0  0  0  0  0
  -30.4119   -1.9938   30.1405 N   0  0  0  0  0  0  0  0  0  0  0  0
  -28.7145   -2.9214   31.0179 O   0  0  0  0  0  0  0  0  0  0  0  0
  -31.2278   -0.9817   29.5688 C   0  0  0  0  0  0  0  0  0  0  0  0
  -32.4982   -1.3475   29.1083 C   0  0  0  0  0  0  0  0  0  0  0  0
  -24.2682    2.0432   27.8945 C   0  0  0  0  0  0  0  0  0  0  0  0
  -23.9230    1.5401   28.9716 F   0  0  0  0  0  0  0  0  0  0  0  0
  -24.8799    3.1874   28.0666 F   0  0  0  0  0  0  0  0  0  0  0  0
  -23.0246    2.3216   27.3195 F   0  0  0  0  0  0  0  0  0  0  0  0
  -32.8013   -2.5169   29.1066 C   0  0  0  0  0  0  0  0  0  0  0  0
  -31.1631   -3.2292   29.9966 C   0  0  0  0  0  0  0  0  0  0  0  0
  -32.2772   -3.5397   29.5317 C   0  0  0  0  0  0  0  0  0  0  0  0
  3  4  1  0
  2  5  1  0
  4  7  2  0
  7  8  1  0
  8 11  2  0
  4 12  1  0
 11 12  1  0
  5 13  1  0
  5 14  2  0
 13 15  1  0
 12 17  1  0
 17 18  1  0
 17 19  1  0
 17 20  1  0
 16 21  1  0
 13 22  1  0
 22 23  1  0
 15 16  1  0
 21 23  1  0
  1  2  2  0
  2  6  1  0
  6  9  2  0
  9 10  1  0
 10  3  2  0
  3  1  1  0
M  END

$$$$
