No_927-gen_results/8p0m/2024-11-27-11-27-31/
     RDKit          3D

 25 27  0  0  0  0  0  0  0  0999 V2000
  -28.0162   -0.8135   28.8779 C   0  0  0  0  0  0  0  0  0  0  0  0
  -27.0636   -0.1190   28.6079 C   0  0  0  0  0  0  0  0  0  0  0  0
  -26.8756    1.1325   28.9134 C   0  0  0  0  0  0  0  0  0  0  0  0
  -27.9014    1.8066   29.6436 C   0  0  0  0  0  0  0  0  0  0  0  0
  -29.0458   -0.2316   29.7181 C   0  0  0  0  0  0  0  0  0  0  0  0
  -28.9402    1.0517   30.0597 C   0  0  0  0  0  0  0  0  0  0  0  0
  -30.0381   -1.0345   30.0722 F   0  0  0  0  0  0  0  0  0  0  0  0
  -25.6630    1.9355   28.4517 C   0  0  0  0  0  0  0  0  0  0  0  0
  -24.9331    1.7180   27.6869 C   0  0  0  0  0  0  0  0  0  0  0  0
  -23.7043    2.5326   27.3543 C   0  0  0  0  0  0  0  0  0  0  0  0
  -25.4764    3.2474   29.2205 C   0  0  0  0  0  0  0  0  0  0  0  0
  -24.5600    4.2101   28.7519 C   0  0  0  0  0  0  0  0  0  0  0  0
  -23.6086    3.7558   27.8323 C   0  0  0  0  0  0  0  0  0  0  0  0
  -22.8620    2.1733   26.3391 F   0  0  0  0  0  0  0  0  0  0  0  0
  -25.9963   -0.6846   27.8137 O   0  0  0  0  0  0  0  0  0  0  0  0
  -29.9193    1.6110   30.7954 F   0  0  0  0  0  0  0  0  0  0  0  0
  -25.1585   -1.6242   28.4377 C   0  0  0  0  0  0  0  0  0  0  0  0
  -24.6004   -1.3009   29.7172 C   0  0  0  0  0  0  0  0  0  0  0  0
  -24.8726   -1.7995   30.5950 C   0  0  0  0  0  0  0  0  0  0  0  0
  -24.2660   -1.3747   31.9516 C   0  0  0  0  0  0  0  0  0  0  0  0
  -23.3017   -0.3669   31.9019 C   0  0  0  0  0  0  0  0  0  0  0  0
  -23.5118   -0.2581   29.8004 C   0  0  0  0  0  0  0  0  0  0  0  0
  -22.8662    0.1345   30.8117 C   0  0  0  0  0  0  0  0  0  0  0  0
  -25.0488   -2.7108   27.9433 O   0  0  0  0  0  0  0  0  0  0  0  0
  -25.8499   -2.6819   30.7012 O   0  0  0  0  0  0  0  0  0  0  0  0
  5  7  1  0
  3  8  1  0
 10 14  1  0
  2 15  1  0
  6 16  1  0
 15 17  1  0
 17 18  1  0
 17 24  2  0
 19 25  1  0
 18 19  2  0
 19 20  1  0
 20 21  2  0
 21 23  1  0
 23 22  2  0
 22 18  1  0
  8  9  2  0
  9 10  1  0
 10 13  2  0
 13 12  1  0
 12 11  2  0
 11  8  1  0
  1  2  2  0
  2  3  1  0
  3  4  2  0
  4  6  1  0
  6  5  2  0
  5  1  1  0
M  END

$$$$
