No_933-gen_results/8p0m/2024-11-27-11-27-31/
     RDKit          3D

 14 15  0  0  0  0  0  0  0  0999 V2000
  -28.0162   -0.8135   28.8779 C   0  0  0  0  0  0  0  0  0  0  0  0
  -28.4690   -0.7850   29.8287 C   0  0  0  0  0  0  0  0  0  0  0  0
  -26.5042   -0.7777   28.8766 C   0  0  0  0  0  0  0  0  0  0  0  0
  -25.8103   -0.8531   30.1028 C   0  0  0  0  0  0  0  0  0  0  0  0
  -27.9906   -0.8916   31.2257 C   0  0  0  0  0  0  0  0  0  0  0  0
  -26.6042   -0.8676   31.2652 C   0  0  0  0  0  0  0  0  0  0  0  0
  -29.9765   -0.8288   29.8497 N   0  0  0  0  0  0  0  0  0  0  0  0
  -30.7393    0.1622   30.2418 C   0  0  0  0  0  0  0  0  0  0  0  0
  -30.2967    1.2198   30.4540 C   0  0  0  0  0  0  0  0  0  0  0  0
  -30.7426    2.3976   30.6556 C   0  0  0  0  0  0  0  0  0  0  0  0
  -30.0988    3.6860   30.9424 C   0  0  0  0  0  0  0  0  0  0  0  0
  -28.6872    3.6352   30.9451 C   0  0  0  0  0  0  0  0  0  0  0  0
  -28.0287    2.4316   30.7382 C   0  0  0  0  0  0  0  0  0  0  0  0
  -28.7080    1.3446   30.5318 C   0  0  0  0  0  0  0  0  0  0  0  0
  2  7  1  0
  7  8  1  0
  8  9  1  0
  9 10  2  0
 10 11  1  0
 11 12  2  0
 12 13  1  0
 13 14  2  0
 14  9  1  0
  1  2  2  0
  2  5  1  0
  5  6  2  0
  6  4  1  0
  4  3  2  0
  3  1  1  0
M  END

$$$$
