No_990-gen_results/8p0m/2024-11-27-11-27-31/
     RDKit          3D

 18 20  0  0  0  0  0  0  0  0999 V2000
  -28.0162   -0.8135   28.8779 C   0  0  0  0  0  0  0  0  0  0  0  0
  -27.0636   -0.1189   28.6079 C   0  0  0  0  0  0  0  0  0  0  0  0
  -27.0010    0.6913   27.4910 C   0  0  0  0  0  0  0  0  0  0  0  0
  -25.8548    1.4825   27.0830 C   0  0  0  0  0  0  0  0  0  0  0  0
  -24.6901    1.4526   27.8807 C   0  0  0  0  0  0  0  0  0  0  0  0
  -24.7379    0.6010   29.0416 C   0  0  0  0  0  0  0  0  0  0  0  0
  -25.8234   -0.1688   29.3887 C   0  0  0  0  0  0  0  0  0  0  0  0
  -29.2075   -0.1514   29.0660 N   0  0  0  0  0  0  0  0  0  0  0  0
  -30.2318   -0.7607   29.6957 C   0  0  0  0  0  0  0  0  0  0  0  0
  -23.5223    2.2141   27.5499 C   0  0  0  0  0  0  0  0  0  0  0  0
  -23.5993    2.9491   26.6311 F   0  0  0  0  0  0  0  0  0  0  0  0
  -22.4382    1.3399   27.2165 F   0  0  0  0  0  0  0  0  0  0  0  0
  -23.0925    2.9246   28.6211 F   0  0  0  0  0  0  0  0  0  0  0  0
  -29.9628   -1.8880   30.3931 C   0  0  0  0  0  0  0  0  0  0  0  0
  -28.7095   -2.5253   30.4076 C   0  0  0  0  0  0  0  0  0  0  0  0
  -27.5995   -1.6019   30.1868 C   0  0  0  0  0  0  0  0  0  0  0  0
  -26.1528   -1.8426   29.9784 C   0  0  0  0  0  0  0  0  0  0  0  0
  -27.6199   -0.5728   31.4740 C   0  0  0  0  0  0  0  0  0  0  0  0
  1  2  1  0
  1  8  1  0
  8  9  1  0
  5 10  1  0
 10 11  1  0
 10 12  1  0
 10 13  1  0
 14 15  1  0
  1 16  1  0
 15 16  1  0
  7 17  1  0
 16 17  1  0
 16 18  1  0
  9 14  1  0
  2  3  2  0
  3  4  1  0
  4  5  2  0
  5  6  1  0
  6  7  2  0
  7  2  1  0
M  END

$$$$
