No_914-gen_results/8p0m/2024-11-27-11-27-31/
     RDKit          3D

 15 16  0  0  0  0  0  0  0  0999 V2000
  -28.0162   -0.8135   28.8779 C   0  0  0  0  0  0  0  0  0  0  0  0
  -28.4690   -0.7850   29.8287 C   0  0  0  0  0  0  0  0  0  0  0  0
  -28.1816    0.4277   28.1134 C   0  0  0  0  0  0  0  0  0  0  0  0
  -27.4498    0.6435   26.8500 C   0  0  0  0  0  0  0  0  0  0  0  0
  -27.8596    1.4573   25.9076 C   0  0  0  0  0  0  0  0  0  0  0  0
  -29.4263    0.1097   30.4178 C   0  0  0  0  0  0  0  0  0  0  0  0
  -29.6233    1.2198   29.7351 C   0  0  0  0  0  0  0  0  0  0  0  0
  -28.9609    1.4529   28.5513 C   0  0  0  0  0  0  0  0  0  0  0  0
  -28.7869    2.5467   26.3167 C   0  0  0  0  0  0  0  0  0  0  0  0
  -29.4265    2.4288   27.5639 C   0  0  0  0  0  0  0  0  0  0  0  0
  -26.5515   -0.2951   26.4177 O   0  0  0  0  0  0  0  0  0  0  0  0
  -25.3539   -0.1659   27.1375 C   0  0  0  0  0  0  0  0  0  0  0  0
  -24.4602    0.8345   26.7406 C   0  0  0  0  0  0  0  0  0  0  0  0
  -24.4928    1.5864   25.7647 C   0  0  0  0  0  0  0  0  0  0  0  0
  -23.4498    2.6327   25.6163 C   0  0  0  0  0  0  0  0  0  0  0  0
  4 11  1  0
 11 12  1  0
 12 13  1  0
 13 14  2  3
 14 15  1  0
  3  4  2  0
  4  5  1  0
  5  9  2  0
  9 10  1  0
 10  8  2  0
  1  2  2  0
  2  6  1  0
  6  7  2  0
  7  8  1  0
  8  3  1  0
  3  1  1  0
M  END

$$$$
