No_952-gen_results/8p0m/2024-11-27-11-27-31/
     RDKit          3D

 20 21  0  0  0  0  0  0  0  0999 V2000
  -28.0162   -0.8135   28.8779 C   0  0  0  0  0  0  0  0  0  0  0  0
  -27.0636   -0.1190   28.6079 C   0  0  0  0  0  0  0  0  0  0  0  0
  -26.9287    1.1713   29.0083 C   0  0  0  0  0  0  0  0  0  0  0  0
  -27.9560    1.7411   29.7840 C   0  0  0  0  0  0  0  0  0  0  0  0
  -29.0569   -0.3271   29.7466 C   0  0  0  0  0  0  0  0  0  0  0  0
  -28.9828    0.9722   30.1516 C   0  0  0  0  0  0  0  0  0  0  0  0
  -25.8815   -0.6260   27.7945 C   0  0  0  0  0  0  0  0  0  0  0  0
  -24.6972   -1.0572   28.6241 C   0  0  0  0  0  0  0  0  0  0  0  0
  -24.6429   -2.2546   29.1042 C   0  0  0  0  0  0  0  0  0  0  0  0
  -25.6817   -3.2097   28.9687 C   0  0  0  0  0  0  0  0  0  0  0  0
  -25.4497   -4.5763   29.3923 C   0  0  0  0  0  0  0  0  0  0  0  0
  -24.1863   -5.0625   29.2570 C   0  0  0  0  0  0  0  0  0  0  0  0
  -23.1464   -4.1349   28.9544 C   0  0  0  0  0  0  0  0  0  0  0  0
  -23.3293   -2.8226   28.8776 C   0  0  0  0  0  0  0  0  0  0  0  0
  -23.7565    0.0116   28.9964 C   0  0  0  0  0  0  0  0  0  0  0  0
  -23.2657    0.1969   30.2159 C   0  0  0  0  0  0  0  0  0  0  0  0
  -23.1852    0.8072   27.8933 C   0  0  0  0  0  0  0  0  0  0  0  0
  -21.9360    1.3941   28.0165 C   0  0  0  0  0  0  0  0  0  0  0  0
  -21.6363    2.3719   27.0421 C   0  0  0  0  0  0  0  0  0  0  0  0
  -22.4918    2.3941   25.8947 C   0  0  0  0  0  0  0  0  0  0  0  0
  2  7  1  0
  7  8  1  0
  8 15  1  0
 15 16  1  0
 15 17  1  0
 17 18  2  3
 18 19  1  0
 19 20  2  0
  8  9  1  0
  1  2  2  0
  2  3  1  0
  3  4  2  0
  4  6  1  0
  6  5  2  0
  5  1  1  0
  9 10  2  0
 10 11  1  0
 11 12  2  0
 12 13  1  0
 13 14  2  0
 14  9  1  0
M  END

$$$$
