No_938-gen_results/8p0m/2024-11-27-11-27-31/
     RDKit          3D

 17 17  0  0  0  0  0  0  0  0999 V2000
  -28.0162   -0.8135   28.8779 C   0  0  0  0  0  0  0  0  0  0  0  0
  -28.4690   -0.7850   29.8287 C   0  0  0  0  0  0  0  0  0  0  0  0
  -28.1816    0.4277   28.1134 C   0  0  0  0  0  0  0  0  0  0  0  0
  -27.4498    0.6435   26.8500 C   0  0  0  0  0  0  0  0  0  0  0  0
  -26.4529    0.9939   26.6681 C   0  0  0  0  0  0  0  0  0  0  0  0
  -25.1812    0.8624   26.8165 C   0  0  0  0  0  0  0  0  0  0  0  0
  -24.2036    1.0464   27.4866 C   0  0  0  0  0  0  0  0  0  0  0  0
  -29.4367    0.0780   30.4436 C   0  0  0  0  0  0  0  0  0  0  0  0
  -23.2068    1.1721   27.8981 C   0  0  0  0  0  0  0  0  0  0  0  0
  -29.6775    1.1885   29.7341 C   0  0  0  0  0  0  0  0  0  0  0  0
  -29.0585    1.3972   28.5508 C   0  0  0  0  0  0  0  0  0  0  0  0
  -21.9512    1.0728   28.5269 C   0  0  0  0  0  0  0  0  0  0  0  0
  -28.3647    0.2102   25.7067 C   0  0  0  0  0  0  0  0  0  0  0  0
  -28.0330    0.8305   24.7731 F   0  0  0  0  0  0  0  0  0  0  0  0
  -29.6579    0.3108   26.0808 F   0  0  0  0  0  0  0  0  0  0  0  0
  -28.1077   -1.0472   25.3196 F   0  0  0  0  0  0  0  0  0  0  0  0
  -20.8285    1.0380   27.4918 Cl  0  0  0  0  0  0  0  0  0  0  0  0
  3  4  1  0
  4  5  2  3
  5  6  1  0
  6  7  2  3
  7  9  1  0
  9 12  3  0
  4 13  1  0
 13 14  1  0
 13 15  1  0
 13 16  1  0
 12 17  1  0
  1  2  2  0
  2  8  1  0
  8 10  2  0
 10 11  1  0
 11  3  2  0
  3  1  1  0
M  END

$$$$
