No_978-gen_results/8p0m/2024-11-27-11-27-31/
     RDKit          3D

 13 14  0  0  0  0  0  0  0  0999 V2000
  -28.0162   -0.8135   28.8779 C   0  0  0  0  0  0  0  0  0  0  0  0
  -27.0636   -0.1189   28.6079 C   0  0  0  0  0  0  0  0  0  0  0  0
  -26.9287    1.1713   29.0083 C   0  0  0  0  0  0  0  0  0  0  0  0
  -25.7702    2.0341   28.6884 C   0  0  0  0  0  0  0  0  0  0  0  0
  -24.7141    1.4431   27.9188 C   0  0  0  0  0  0  0  0  0  0  0  0
  -24.8590    0.0783   27.5836 C   0  0  0  0  0  0  0  0  0  0  0  0
  -25.9647   -0.6606   27.9164 C   0  0  0  0  0  0  0  0  0  0  0  0
  -28.6510   -0.6086   30.2543 C   0  0  0  0  0  0  0  0  0  0  0  0
  -28.9359    0.6863   30.5312 C   0  0  0  0  0  0  0  0  0  0  0  0
  -27.8080    1.6040   30.1303 C   0  0  0  0  0  0  0  0  0  0  0  0
  -23.5671    2.1807   27.4594 C   0  0  0  0  0  0  0  0  0  0  0  0
  -22.4198    1.8091   27.6813 O   0  0  0  0  0  0  0  0  0  0  0  0
  -23.8251    3.2598   26.7660 O   0  0  0  0  0  0  0  0  0  0  0  0
  5 11  1  0
 11 12  2  0
 11 13  1  0
  3  4  1  0
  4  5  2  0
  5  6  1  0
  6  7  2  0
  7  2  1  0
  1  2  2  0
  2  3  1  0
  3 10  2  0
 10  9  1  0
  9  8  2  0
  8  1  1  0
M  END

$$$$
