No_908-gen_results/8p0m/2024-11-27-11-27-31/
     RDKit          3D

 15 16  0  0  0  0  0  0  0  0999 V2000
  -28.0162   -0.8135   28.8779 C   0  0  0  0  0  0  0  0  0  0  0  0
  -28.4690   -0.7850   29.8287 C   0  0  0  0  0  0  0  0  0  0  0  0
  -27.0871    0.2903   28.6377 C   0  0  0  0  0  0  0  0  0  0  0  0
  -26.2516    0.4114   27.4223 C   0  0  0  0  0  0  0  0  0  0  0  0
  -28.3913    0.1041   30.9805 C   0  0  0  0  0  0  0  0  0  0  0  0
  -27.5332    1.1666   30.7866 C   0  0  0  0  0  0  0  0  0  0  0  0
  -26.7557    1.3057   29.6122 C   0  0  0  0  0  0  0  0  0  0  0  0
  -24.9324    0.3145   27.6221 C   0  0  0  0  0  0  0  0  0  0  0  0
  -24.0545    1.1650   26.8146 C   0  0  0  0  0  0  0  0  0  0  0  0
  -22.6595    1.3260   27.1726 C   0  0  0  0  0  0  0  0  0  0  0  0
  -22.1693    0.6539   28.3022 C   0  0  0  0  0  0  0  0  0  0  0  0
  -24.2683   -0.2350   28.7732 C   0  0  0  0  0  0  0  0  0  0  0  0
  -22.9519   -0.1459   29.0440 C   0  0  0  0  0  0  0  0  0  0  0  0
  -26.6579   -0.6595   26.3706 C   0  0  0  0  0  0  0  0  0  0  0  0
  -26.7154    1.7806   26.7693 C   0  0  0  0  0  0  0  0  0  0  0  0
  3  4  1  0
  4  8  1  0
  4 14  1  0
  4 15  1  0
  1  2  2  0
  2  5  1  0
  5  6  2  0
  6  7  1  0
  7  3  2  0
  3  1  1  0
  8  9  2  0
  9 10  1  0
 10 11  2  0
 11 13  1  0
 13 12  2  0
 12  8  1  0
M  END

$$$$
