No_932-gen_results/8p0m/2024-11-27-11-27-31/
     RDKit          3D

 35 36  0  0  0  0  0  0  0  0999 V2000
  -28.0162   -0.8135   28.8779 C   0  0  0  0  0  0  0  0  0  0  0  0
  -27.0636   -0.1189   28.6079 C   0  0  0  0  0  0  0  0  0  0  0  0
  -25.7923   -0.4302   29.0761 C   0  0  0  0  0  0  0  0  0  0  0  0
  -24.5456    0.3494   28.8225 C   0  0  0  0  0  0  0  0  0  0  0  0
  -24.6586    1.4196   27.8878 C   0  0  0  0  0  0  0  0  0  0  0  0
  -25.9471    1.6811   27.3792 C   0  0  0  0  0  0  0  0  0  0  0  0
  -27.0439    0.9739   27.6871 C   0  0  0  0  0  0  0  0  0  0  0  0
  -29.2096   -0.0265   29.3432 C   0  0  0  0  0  0  0  0  0  0  0  0
  -30.0494    0.2841   28.3230 C   0  0  0  0  0  0  0  0  0  0  0  0
  -31.1015    1.0742   28.6744 C   0  0  0  0  0  0  0  0  0  0  0  0
  -31.9720    1.5499   27.6666 C   0  0  0  0  0  0  0  0  0  0  0  0
  -31.7243    1.1469   26.3412 C   0  0  0  0  0  0  0  0  0  0  0  0
  -30.6487    0.3831   25.9899 C   0  0  0  0  0  0  0  0  0  0  0  0
  -29.8070   -0.0195   26.9584 C   0  0  0  0  0  0  0  0  0  0  0  0
  -23.4841    2.1830   27.6020 C   0  0  0  0  0  0  0  0  0  0  0  0
  -23.5259    2.7979   26.6867 F   0  0  0  0  0  0  0  0  0  0  0  0
  -22.3486    1.2670   27.3967 F   0  0  0  0  0  0  0  0  0  0  0  0
  -23.0999    2.8801   28.7135 F   0  0  0  0  0  0  0  0  0  0  0  0
  -29.9349   -0.7416   30.4302 N   0  0  0  0  0  0  0  0  0  0  0  0
  -29.6082   -0.5965   31.6783 C   0  0  0  0  0  0  0  0  0  0  0  0
  -30.3826   -2.0598   30.1191 C   0  0  0  0  0  0  0  0  0  0  0  0
  -30.3653   -0.1723   24.7381 C   0  0  0  0  0  0  0  0  0  0  0  0
  -30.8665   -1.4272   24.3966 C   0  0  0  0  0  0  0  0  0  0  0  0
  -29.5327    0.5203   23.8035 C   0  0  0  0  0  0  0  0  0  0  0  0
  -31.3549   -2.5233   31.0441 C   0  0  0  0  0  0  0  0  0  0  0  0
  -32.0688   -3.5150   30.6186 C   0  0  0  0  0  0  0  0  0  0  0  0
  -31.9479   -3.8474   29.4031 C   0  0  0  0  0  0  0  0  0  0  0  0
  -32.6007   -4.9241   28.9482 N   0  0  0  0  0  0  0  0  0  0  0  0
  -32.4353   -5.4427   27.6479 C   0  0  0  0  0  0  0  0  0  0  0  0
  -31.6894   -4.7814   26.8426 N   0  0  0  0  0  0  0  0  0  0  0  0
  -33.0484   -6.6121   27.2830 N   0  0  0  0  0  0  0  0  0  0  0  0
  -29.0217    0.7446   32.0543 C   0  0  0  0  0  0  0  0  0  0  0  0
  -28.4184    0.8401   33.2777 C   0  0  0  0  0  0  0  0  0  0  0  0
  -28.4056   -0.1751   34.1388 C   0  0  0  0  0  0  0  0  0  0  0  0
  -28.9100   -1.4128   33.8271 C   0  0  0  0  0  0  0  0  0  0  0  0
  1  2  1  0
  1  8  1  0
  8  9  1  0
  5 15  1  0
 15 16  1  0
 15 17  1  0
 15 18  1  0
  8 19  1  0
 19 20  1  0
 19 21  1  0
 13 22  1  0
 22 23  1  0
 22 24  1  0
 21 25  1  0
 25 26  1  0
 26 27  2  3
 27 28  1  0
 28 29  2  3
 29 30  1  0
 29 31  1  0
 20 32  2  3
 32 33  1  0
 33 34  2  3
 34 35  1  0
  2  3  2  0
  3  4  1  0
  4  5  2  0
  5  6  1  0
  6  7  2  0
  7  2  1  0
  9 10  2  0
 10 11  1  0
 11 12  2  0
 12 13  1  0
 13 14  2  0
 14  9  1  0
M  END

$$$$
