No_941-gen_results/8p0m/2024-11-27-11-27-31/
     RDKit          3D

 14 14  0  0  0  0  0  0  0  0999 V2000
  -28.1229   -1.3353   28.4874 O   0  0  0  0  0  0  0  0  0  0  0  0
  -27.4806   -0.4044   28.7094 C   0  0  0  0  0  0  0  0  0  0  0  0
  -27.1904    0.2460   29.5268 C   0  0  0  0  0  0  0  0  0  0  0  0
  -26.6871   -0.0001   27.4423 N   0  0  0  0  0  0  0  0  0  0  0  0
  -26.3501    1.4331   29.7418 C   0  0  0  0  0  0  0  0  0  0  0  0
  -25.8648    1.0936   27.4148 C   0  0  0  0  0  0  0  0  0  0  0  0
  -25.1771    1.4655   26.2246 C   0  0  0  0  0  0  0  0  0  0  0  0
  -25.6454    1.8471   28.5712 C   0  0  0  0  0  0  0  0  0  0  0  0
  -24.9837    0.9049   25.2255 C   0  0  0  0  0  0  0  0  0  0  0  0
  -24.3955    2.7537   26.2831 C   0  0  0  0  0  0  0  0  0  0  0  0
  -25.7371   -0.3682   25.0187 C   0  0  0  0  0  0  0  0  0  0  0  0
  -27.9193   -0.1042   30.9238 C   0  0  0  0  0  0  0  0  0  0  0  0
  -24.3796    3.5815   27.3886 C   0  0  0  0  0  0  0  0  0  0  0  0
  -24.9295    3.1081   28.5080 C   0  0  0  0  0  0  0  0  0  0  0  0
  1  2  2  0
  2  3  1  0
  2  4  1  0
  4  6  1  0
  6  7  1  0
  5  8  1  0
  6  8  1  0
  7  9  1  0
  7 10  1  0
  9 11  2  0
  3 12  1  0
 10 13  2  3
 13 14  1  0
  3  5  1  0
M  END

$$$$
