No_986-gen_results/8p0m/2024-11-27-11-27-31/
     RDKit          3D

 12 13  0  0  0  0  0  0  0  0999 V2000
  -28.0162   -0.8135   28.8779 C   0  0  0  0  0  0  0  0  0  0  0  0
  -28.4690   -0.7850   29.8287 C   0  0  0  0  0  0  0  0  0  0  0  0
  -28.1816    0.4277   28.1134 C   0  0  0  0  0  0  0  0  0  0  0  0
  -29.3519    0.6041   27.4037 C   0  0  0  0  0  0  0  0  0  0  0  0
  -29.4078    1.3882   26.3585 C   0  0  0  0  0  0  0  0  0  0  0  0
  -28.3732   -1.9693   30.7332 C   0  0  0  0  0  0  0  0  0  0  0  0
  -27.5744   -3.0289   30.2784 C   0  0  0  0  0  0  0  0  0  0  0  0
  -26.6938   -2.8337   29.2908 C   0  0  0  0  0  0  0  0  0  0  0  0
  -26.7881   -1.6124   28.5989 C   0  0  0  0  0  0  0  0  0  0  0  0
  -27.0772    1.2364   27.6679 C   0  0  0  0  0  0  0  0  0  0  0  0
  -27.1323    2.1816   26.6828 C   0  0  0  0  0  0  0  0  0  0  0  0
  -28.3830    2.2943   26.0298 C   0  0  0  0  0  0  0  0  0  0  0  0
  1  3  1  0
  3  4  2  0
  4  5  1  0
  5 12  2  0
 12 11  1  0
 11 10  2  0
 10  3  1  0
  1  2  2  0
  2  6  1  0
  6  7  2  0
  7  8  1  0
  8  9  2  0
  9  1  1  0
M  END

$$$$
