No_98-gen_results/8p0m/2024-11-27-11-27-31/
     RDKit          3D

 31 34  0  0  0  0  0  0  0  0999 V2000
  -28.1493   -0.8198   28.9079 Cl  0  0  0  0  0  0  0  0  0  0  0  0
  -26.9116   -0.0797   28.9452 C   0  0  0  0  0  0  0  0  0  0  0  0
  -26.7384    1.0439   29.2534 C   0  0  0  0  0  0  0  0  0  0  0  0
  -25.4392    1.7115   29.2755 C   0  0  0  0  0  0  0  0  0  0  0  0
  -24.2813    0.9888   28.8542 C   0  0  0  0  0  0  0  0  0  0  0  0
  -24.4869   -0.3041   28.4957 C   0  0  0  0  0  0  0  0  0  0  0  0
  -25.7046   -0.8667   28.5244 C   0  0  0  0  0  0  0  0  0  0  0  0
  -22.9617    1.6322   28.7948 C   0  0  0  0  0  0  0  0  0  0  0  0
  -22.7682    2.7355   28.6243 O   0  0  0  0  0  0  0  0  0  0  0  0
  -21.9200    0.7432   28.6274 O   0  0  0  0  0  0  0  0  0  0  0  0
  -27.8119    1.9777   29.7428 C   0  0  0  0  0  0  0  0  0  0  0  0
  -28.1868    2.8510   28.9745 C   0  0  0  0  0  0  0  0  0  0  0  0
  -27.6065    3.1937   27.7036 C   0  0  0  0  0  0  0  0  0  0  0  0
  -28.1364    4.2437   26.9113 C   0  0  0  0  0  0  0  0  0  0  0  0
  -29.2813    4.9127   27.2678 C   0  0  0  0  0  0  0  0  0  0  0  0
  -29.8860    4.5906   28.4762 C   0  0  0  0  0  0  0  0  0  0  0  0
  -29.4196    3.6902   29.3058 C   0  0  0  0  0  0  0  0  0  0  0  0
  -28.3286    1.6824   31.0276 C   0  0  0  0  0  0  0  0  0  0  0  0
  -27.8040    2.4402   32.0515 C   0  0  0  0  0  0  0  0  0  0  0  0
  -26.7534    3.2998   31.9938 C   0  0  0  0  0  0  0  0  0  0  0  0
  -26.2890    4.0881   32.7090 C   0  0  0  0  0  0  0  0  0  0  0  0
  -25.1076    5.0321   32.5277 C   0  0  0  0  0  0  0  0  0  0  0  0
  -25.0237    5.8709   31.9546 C   0  0  0  0  0  0  0  0  0  0  0  0
  -26.1570    6.4971   31.3255 C   0  0  0  0  0  0  0  0  0  0  0  0
  -25.9674    7.6757   30.4628 C   0  0  0  0  0  0  0  0  0  0  0  0
  -24.7063    8.1194   30.3640 C   0  0  0  0  0  0  0  0  0  0  0  0
  -23.6706    7.7804   31.0655 C   0  0  0  0  0  0  0  0  0  0  0  0
  -23.7887    6.6242   31.9153 C   0  0  0  0  0  0  0  0  0  0  0  0
  -26.9992    4.3985   34.0292 C   0  0  0  0  0  0  0  0  0  0  0  0
  -28.1781    3.5879   34.2393 C   0  0  0  0  0  0  0  0  0  0  0  0
  -28.6031    2.6665   33.2934 C   0  0  0  0  0  0  0  0  0  0  0  0
  1  2  1  0
  5  8  1  0
  8  9  2  0
  8 10  1  0
  3 11  1  0
 11 18  1  0
 21 22  1  0
 18 19  1  0
 22 23  1  0
 11 12  1  0
 12 13  2  0
 13 14  1  0
 14 15  2  0
 15 16  1  0
 16 17  2  0
 17 12  1  0
  2  3  2  0
  3  4  1  0
  4  5  2  0
  5  6  1  0
  6  7  2  0
  7  2  1  0
 23 24  2  0
 24 25  1  0
 25 26  2  0
 26 27  1  0
 27 28  2  0
 28 23  1  0
 19 20  2  0
 20 21  1  0
 21 29  2  0
 29 30  1  0
 30 31  2  0
 31 19  1  0
M  END

$$$$
