No_91-gen_results/8p0m/2024-11-27-11-27-31/
     RDKit          3D

 11 12  0  0  0  0  0  0  0  0999 V2000
  -28.1493   -0.8198   28.9079 Cl  0  0  0  0  0  0  0  0  0  0  0  0
  -26.9116   -0.0797   28.9452 C   0  0  0  0  0  0  0  0  0  0  0  0
  -26.0490   -0.0718   27.8591 C   0  0  0  0  0  0  0  0  0  0  0  0
  -25.2289    1.0128   27.6200 C   0  0  0  0  0  0  0  0  0  0  0  0
  -24.7459    1.8002   28.6916 C   0  0  0  0  0  0  0  0  0  0  0  0
  -25.4578    1.6617   29.8627 C   0  0  0  0  0  0  0  0  0  0  0  0
  -26.4794    0.7961   30.0040 C   0  0  0  0  0  0  0  0  0  0  0  0
  -24.3523    1.0768   26.3878 C   0  0  0  0  0  0  0  0  0  0  0  0
  -23.3176    2.0156   26.2984 C   0  0  0  0  0  0  0  0  0  0  0  0
  -22.9779    2.7977   27.4087 C   0  0  0  0  0  0  0  0  0  0  0  0
  -23.6411    2.6978   28.5237 C   0  0  0  0  0  0  0  0  0  0  0  0
  1  2  1  0
  2  3  2  0
  3  4  1  0
  5  6  1  0
  6  7  2  0
  7  2  1  0
  4  5  2  0
  5 11  1  0
 11 10  2  0
 10  9  1  0
  9  8  2  0
  8  4  1  0
M  END

$$$$
