No_956-gen_results/8p0m/2024-11-27-11-27-31/
     RDKit          3D

 22 22  0  0  0  0  0  0  0  0999 V2000
  -28.0162   -0.8135   28.8779 C   0  0  0  0  0  0  0  0  0  0  0  0
  -27.0636   -0.1189   28.6079 C   0  0  0  0  0  0  0  0  0  0  0  0
  -25.7647   -0.3897   29.0360 C   0  0  0  0  0  0  0  0  0  0  0  0
  -25.5296   -1.5302   29.9014 C   0  0  0  0  0  0  0  0  0  0  0  0
  -26.6888   -2.2893   30.1810 C   0  0  0  0  0  0  0  0  0  0  0  0
  -27.8727   -1.9508   29.7373 C   0  0  0  0  0  0  0  0  0  0  0  0
  -28.9304   -2.7298   30.1154 O   0  0  0  0  0  0  0  0  0  0  0  0
  -24.2350    0.6583   28.6428 Br  0  0  0  0  0  0  0  0  0  0  0  0
  -29.2807   -2.7976   31.4648 C   0  0  0  0  0  0  0  0  0  0  0  0
  -29.8588   -1.7550   31.9713 C   0  0  0  0  0  0  0  0  0  0  0  0
  -29.8012   -1.6237   33.1154 O   0  0  0  0  0  0  0  0  0  0  0  0
  -30.3927   -0.9388   31.1648 O   0  0  0  0  0  0  0  0  0  0  0  0
  -27.1638    1.0479   27.6086 C   0  0  0  0  0  0  0  0  0  0  0  0
  -27.1959    2.2396   28.0706 C   0  0  0  0  0  0  0  0  0  0  0  0
  -26.8571    0.7461   26.2804 C   0  0  0  0  0  0  0  0  0  0  0  0
  -27.4018    0.5934   25.4096 C   0  0  0  0  0  0  0  0  0  0  0  0
  -28.1965    0.2171   24.8836 C   0  0  0  0  0  0  0  0  0  0  0  0
  -29.4684   -0.2190   25.2420 C   0  0  0  0  0  0  0  0  0  0  0  0
  -30.4347   -0.7074   24.3164 C   0  0  0  0  0  0  0  0  0  0  0  0
  -31.6411   -1.2108   24.7484 C   0  0  0  0  0  0  0  0  0  0  0  0
  -31.9507   -1.2115   26.0857 C   0  0  0  0  0  0  0  0  0  0  0  0
  -31.0898   -0.6148   27.0027 C   0  0  0  0  0  0  0  0  0  0  0  0
  6  7  1  0
  3  8  1  0
  7  9  1  0
  9 10  1  0
 10 11  2  0
 10 12  1  0
  2 13  1  0
 13 14  1  0
 13 15  1  0
 15 16  1  0
 16 17  2  3
 17 18  1  0
 18 19  2  3
 19 20  1  0
 20 21  2  3
 21 22  1  0
  1  2  2  0
  2  3  1  0
  3  4  2  0
  4  5  1  0
  5  6  2  0
  6  1  1  0
M  END

$$$$
