No_974-gen_results/8p0m/2024-11-27-11-27-31/
     RDKit          3D

 35 39  0  0  0  0  0  0  0  0999 V2000
  -28.0162   -0.8135   28.8779 C   0  0  0  0  0  0  0  0  0  0  0  0
  -28.4690   -0.7850   29.8287 C   0  0  0  0  0  0  0  0  0  0  0  0
  -26.5042   -0.7777   28.8766 C   0  0  0  0  0  0  0  0  0  0  0  0
  -25.8103   -0.8531   30.1028 C   0  0  0  0  0  0  0  0  0  0  0  0
  -27.9906   -0.8916   31.2257 C   0  0  0  0  0  0  0  0  0  0  0  0
  -26.6042   -0.8676   31.2652 C   0  0  0  0  0  0  0  0  0  0  0  0
  -29.9808   -0.8491   30.0372 N   0  0  0  0  0  0  0  0  0  0  0  0
  -30.7032   -0.0242   29.3095 C   0  0  0  0  0  0  0  0  0  0  0  0
  -30.3328    0.9349   28.7702 C   0  0  0  0  0  0  0  0  0  0  0  0
  -29.7092    1.8767   29.3638 C   0  0  0  0  0  0  0  0  0  0  0  0
  -29.2972    3.1809   28.7519 C   0  0  0  0  0  0  0  0  0  0  0  0
  -28.5129    4.1645   29.4389 C   0  0  0  0  0  0  0  0  0  0  0  0
  -28.0649    3.8363   30.7608 C   0  0  0  0  0  0  0  0  0  0  0  0
  -28.3780    2.5932   31.3290 C   0  0  0  0  0  0  0  0  0  0  0  0
  -29.0601    1.7087   30.6803 C   0  0  0  0  0  0  0  0  0  0  0  0
  -31.9991   -0.5197   29.1705 N   0  0  0  0  0  0  0  0  0  0  0  0
  -25.6653   -0.7136   27.6393 C   0  0  0  0  0  0  0  0  0  0  0  0
  -25.8912    0.3615   26.7314 C   0  0  0  0  0  0  0  0  0  0  0  0
  -25.1954    0.5055   25.6559 C   0  0  0  0  0  0  0  0  0  0  0  0
  -26.7489    1.4436   27.0799 C   0  0  0  0  0  0  0  0  0  0  0  0
  -26.9135    2.5407   26.1932 C   0  0  0  0  0  0  0  0  0  0  0  0
  -25.3233    1.5135   24.6835 C   0  0  0  0  0  0  0  0  0  0  0  0
  -26.1905    2.5968   25.0607 C   0  0  0  0  0  0  0  0  0  0  0  0
  -30.8051    1.2755   27.3971 C   0  0  0  0  0  0  0  0  0  0  0  0
  -31.8914    0.7339   26.9378 C   0  0  0  0  0  0  0  0  0  0  0  0
  -32.5229   -0.2600   27.8508 C   0  0  0  0  0  0  0  0  0  0  0  0
  -33.5913   -0.8712   27.4763 F   0  0  0  0  0  0  0  0  0  0  0  0
  -30.4826   -1.9678   30.8237 C   0  0  0  0  0  0  0  0  0  0  0  0
  -30.0982   -3.1940   30.4733 C   0  0  0  0  0  0  0  0  0  0  0  0
  -30.4470   -4.1883   31.1902 C   0  0  0  0  0  0  0  0  0  0  0  0
  -31.3858   -4.1153   32.2195 C   0  0  0  0  0  0  0  0  0  0  0  0
  -31.7987   -2.8245   32.5739 C   0  0  0  0  0  0  0  0  0  0  0  0
  -31.3321   -1.7302   31.9085 C   0  0  0  0  0  0  0  0  0  0  0  0
  -31.8053   -0.3745   32.3027 C   0  0  0  0  0  0  0  0  0  0  0  0
  -31.1267    0.2506   33.4050 C   0  0  0  0  0  0  0  0  0  0  0  0
  2  7  1  0
  7  8  1  0
  3 17  1  0
 17 18  1  0
 26 27  1  0
  7 28  1  0
 33 34  1  0
 34 35  2  0
 10  9  1  0
  8  9  2  0
  9 24  1  0
 24 25  2  0
 25 26  1  0
 26 16  2  0
 16  8  1  0
 18 19  2  0
 19 22  1  0
 22 23  2  0
 23 21  1  0
 21 20  2  0
 20 18  1  0
 10 11  2  0
 11 12  1  0
 12 13  2  0
 13 14  1  0
 14 15  2  0
 15 10  1  0
 28 29  2  0
 29 30  1  0
 30 31  2  0
 31 32  1  0
 32 33  2  0
 33 28  1  0
  1  2  2  0
  2  5  1  0
  5  6  2  0
  6  4  1  0
  4  3  2  0
  3  1  1  0
M  END

$$$$
