No_962-gen_results/8p0m/2024-11-27-11-27-31/
     RDKit          3D

 16 17  0  0  0  0  0  0  0  0999 V2000
  -28.0544   -1.0498   28.7246 N   0  0  0  0  0  0  0  0  0  0  0  0
  -28.6544   -0.5669   29.5076 C   0  0  0  0  0  0  0  0  0  0  0  0
  -26.7777   -0.5807   28.6029 C   0  0  0  0  0  0  0  0  0  0  0  0
  -25.7560   -1.0215   27.7024 C   0  0  0  0  0  0  0  0  0  0  0  0
  -24.4173   -0.3917   27.7102 C   0  0  0  0  0  0  0  0  0  0  0  0
  -24.1719    0.6385   28.6348 C   0  0  0  0  0  0  0  0  0  0  0  0
  -25.1123    1.0853   29.4859 C   0  0  0  0  0  0  0  0  0  0  0  0
  -26.3436    0.4860   29.5439 C   0  0  0  0  0  0  0  0  0  0  0  0
  -28.5081    0.3910   30.4985 C   0  0  0  0  0  0  0  0  0  0  0  0
  -27.3081    0.9636   30.5098 C   0  0  0  0  0  0  0  0  0  0  0  0
  -22.7709    1.1833   28.5321 C   0  0  0  0  0  0  0  0  0  0  0  0
  -21.7166    0.5929   28.8964 N   0  0  0  0  0  0  0  0  0  0  0  0
  -22.6355    2.3778   27.9638 O   0  0  0  0  0  0  0  0  0  0  0  0
  -30.0110   -1.2515   29.5668 N   0  0  0  0  0  0  0  0  0  0  0  0
  -30.9107   -0.9637   30.4965 C   0  0  0  0  0  0  0  0  0  0  0  0
  -30.6644    0.0377   31.4283 C   0  0  0  0  0  0  0  0  0  0  0  0
  6 11  1  0
 11 12  1  0
 11 13  2  0
  2 14  1  0
 14 15  2  3
 15 16  1  0
  1  2  2  0
  2  9  1  0
  9 10  2  0
 10  8  1  0
  3  1  1  0
  3  4  2  0
  4  5  1  0
  5  6  2  0
  6  7  1  0
  7  8  2  0
  8  3  1  0
M  END

$$$$
