No_928-gen_results/8p0m/2024-11-27-11-27-31/
     RDKit          3D

 15 16  0  0  0  0  0  0  0  0999 V2000
  -28.0162   -0.8135   28.8779 C   0  0  0  0  0  0  0  0  0  0  0  0
  -28.4690   -0.7850   29.8287 C   0  0  0  0  0  0  0  0  0  0  0  0
  -27.1356    0.2359   28.5352 C   0  0  0  0  0  0  0  0  0  0  0  0
  -26.3351    0.2900   27.2835 C   0  0  0  0  0  0  0  0  0  0  0  0
  -29.3807   -1.9134   30.3549 C   0  0  0  0  0  0  0  0  0  0  0  0
  -28.2059    0.3924   30.8190 C   0  0  0  0  0  0  0  0  0  0  0  0
  -26.9926    1.2648   29.4065 C   0  0  0  0  0  0  0  0  0  0  0  0
  -26.0249    2.4348   28.9731 C   0  0  0  0  0  0  0  0  0  0  0  0
  -27.5418    1.3541   30.6105 C   0  0  0  0  0  0  0  0  0  0  0  0
  -25.5383    3.2065   29.6065 C   0  0  0  0  0  0  0  0  0  0  0  0
  -26.0005    2.6720   27.4780 C   0  0  0  0  0  0  0  0  0  0  0  0
  -25.8413    1.4674   26.6966 C   0  0  0  0  0  0  0  0  0  0  0  0
  -28.8703   -2.9053   30.8159 O   0  0  0  0  0  0  0  0  0  0  0  0
  -30.6111   -1.7914   30.3212 O   0  0  0  0  0  0  0  0  0  0  0  0
  -25.1833    2.9367   30.8378 O   0  0  0  0  0  0  0  0  0  0  0  0
  2  5  1  0
  5 13  2  0
  5 14  1  0
 10 15  2  0
 10  8  1  0
  3  4  2  0
  4 12  1  0
 12 11  2  0
 11  8  1  0
  8  7  2  0
  1  2  2  0
  2  6  1  0
  6  9  2  0
  9  7  1  0
  7  3  1  0
  3  1  1  0
M  END

$$$$
