No_915-gen_results/8p0m/2024-11-27-11-27-31/
     RDKit          3D

 13 14  0  0  0  0  0  0  0  0999 V2000
  -28.1229   -1.3353   28.4874 O   0  0  0  0  0  0  0  0  0  0  0  0
  -27.4806   -0.4044   28.7094 C   0  0  0  0  0  0  0  0  0  0  0  0
  -26.4599   -0.1104   28.0051 N   0  0  0  0  0  0  0  0  0  0  0  0
  -25.4297    0.8788   28.3572 C   0  0  0  0  0  0  0  0  0  0  0  0
  -24.3600    1.0559   27.5650 C   0  0  0  0  0  0  0  0  0  0  0  0
  -27.7245    0.4200   29.8925 N   0  0  0  0  0  0  0  0  0  0  0  0
  -23.0857    1.0540   28.1549 C   0  0  0  0  0  0  0  0  0  0  0  0
  -21.9179    1.2191   27.4213 C   0  0  0  0  0  0  0  0  0  0  0  0
  -22.0554    1.9277   26.2478 C   0  0  0  0  0  0  0  0  0  0  0  0
  -23.2976    2.1288   25.6530 C   0  0  0  0  0  0  0  0  0  0  0  0
  -24.4514    1.7085   26.3208 C   0  0  0  0  0  0  0  0  0  0  0  0
  -25.6813    1.5368   29.5700 C   0  0  0  0  0  0  0  0  0  0  0  0
  -26.8191    1.3134   30.3459 C   0  0  0  0  0  0  0  0  0  0  0  0
  1  2  2  0
  2  3  1  0
  3  4  1  0
  4  5  1  0
  2  6  1  0
  4 12  1  0
 12 13  1  0
 13  6  1  0
  5  7  2  0
  7  8  1  0
  8  9  2  0
  9 10  1  0
 10 11  2  0
 11  5  1  0
M  END

$$$$
