No_967-gen_results/8p0m/2024-11-27-11-27-31/
     RDKit          3D

 21 23  0  0  0  0  0  0  0  0999 V2000
  -28.0162   -0.8135   28.8779 C   0  0  0  0  0  0  0  0  0  0  0  0
  -28.4690   -0.7850   29.8287 C   0  0  0  0  0  0  0  0  0  0  0  0
  -28.1816    0.4277   28.1134 C   0  0  0  0  0  0  0  0  0  0  0  0
  -27.4498    0.6435   26.8500 C   0  0  0  0  0  0  0  0  0  0  0  0
  -26.1815    0.0357   26.7145 C   0  0  0  0  0  0  0  0  0  0  0  0
  -25.7800   -0.9326   27.6938 C   0  0  0  0  0  0  0  0  0  0  0  0
  -26.5568   -1.2134   28.7413 C   0  0  0  0  0  0  0  0  0  0  0  0
  -29.6101   -0.2783   30.1938 N   0  0  0  0  0  0  0  0  0  0  0  0
  -28.2441   -1.9032   30.7503 O   0  0  0  0  0  0  0  0  0  0  0  0
  -30.0958    0.8546   29.5851 C   0  0  0  0  0  0  0  0  0  0  0  0
  -29.4491    1.1333   28.3435 C   0  0  0  0  0  0  0  0  0  0  0  0
  -31.2310    1.4615   29.8958 N   0  0  0  0  0  0  0  0  0  0  0  0
  -31.9951    2.0759   29.2081 C   0  0  0  0  0  0  0  0  0  0  0  0
  -32.3478    3.2748   29.6157 C   0  0  0  0  0  0  0  0  0  0  0  0
  -32.9800    4.2912   28.8395 C   0  0  0  0  0  0  0  0  0  0  0  0
  -33.4169    3.8671   27.5579 C   0  0  0  0  0  0  0  0  0  0  0  0
  -33.0369    2.6313   27.0617 C   0  0  0  0  0  0  0  0  0  0  0  0
  -32.2569    1.7870   27.8461 C   0  0  0  0  0  0  0  0  0  0  0  0
  -31.6898    1.1829   31.3240 C   0  0  0  0  0  0  0  0  0  0  0  0
  -31.3999    0.2599   31.9310 O   0  0  0  0  0  0  0  0  0  0  0  0
  -32.7061    2.2013   31.7988 C   0  0  0  0  0  0  0  0  0  0  0  0
  1  2  1  0
  2  8  1  0
  2  9  2  0
  8 10  1  0
  3 11  1  0
 10 11  1  0
 10 12  1  0
 12 13  1  0
 12 19  1  0
 19 20  2  0
 19 21  1  0
 13 14  2  0
 14 15  1  0
 15 16  2  0
 16 17  1  0
 17 18  2  0
 18 13  1  0
  1  7  2  0
  7  6  1  0
  6  5  2  0
  5  4  1  0
  4  3  2  0
  3  1  1  0
M  END

$$$$
