No_975-gen_results/8p0m/2024-11-27-11-27-31/
     RDKit          3D

 23 23  0  0  0  0  0  0  0  0999 V2000
  -28.1493   -0.8198   28.9079 Cl  0  0  0  0  0  0  0  0  0  0  0  0
  -26.9116   -0.0797   28.9452 C   0  0  0  0  0  0  0  0  0  0  0  0
  -26.7384    1.0439   29.2534 C   0  0  0  0  0  0  0  0  0  0  0  0
  -25.4244    1.5757   29.4244 C   0  0  0  0  0  0  0  0  0  0  0  0
  -24.2627    0.8479   29.0317 C   0  0  0  0  0  0  0  0  0  0  0  0
  -24.4866   -0.4397   28.6728 C   0  0  0  0  0  0  0  0  0  0  0  0
  -25.7216   -0.9285   28.6162 C   0  0  0  0  0  0  0  0  0  0  0  0
  -22.9146    1.4290   29.0743 C   0  0  0  0  0  0  0  0  0  0  0  0
  -21.8989    0.7266   29.0126 O   0  0  0  0  0  0  0  0  0  0  0  0
  -22.7274    2.6896   28.7958 O   0  0  0  0  0  0  0  0  0  0  0  0
  -27.7151    1.8728   29.6910 O   0  0  0  0  0  0  0  0  0  0  0  0
  -27.6101    3.1338   29.6045 C   0  0  0  0  0  0  0  0  0  0  0  0
  -27.5241    3.9831   30.6135 C   0  0  0  0  0  0  0  0  0  0  0  0
  -28.1114    3.5741   31.6879 F   0  0  0  0  0  0  0  0  0  0  0  0
  -27.9127    5.2935   30.3828 F   0  0  0  0  0  0  0  0  0  0  0  0
  -26.1805    4.1536   31.0201 F   0  0  0  0  0  0  0  0  0  0  0  0
  -27.7340    3.6293   28.3090 N   0  0  0  0  0  0  0  0  0  0  0  0
  -27.6498    2.8084   27.1560 C   0  0  0  0  0  0  0  0  0  0  0  0
  -28.4724    3.1601   26.3032 C   0  0  0  0  0  0  0  0  0  0  0  0
  -28.4810    2.4210   25.1350 C   0  0  0  0  0  0  0  0  0  0  0  0
  -29.5162    2.5053   24.1671 C   0  0  0  0  0  0  0  0  0  0  0  0
  -30.5339    3.5038   24.2846 C   0  0  0  0  0  0  0  0  0  0  0  0
  -30.4767    4.3166   25.4461 C   0  0  0  0  0  0  0  0  0  0  0  0
  1  2  1  0
  5  8  1  0
  8  9  2  0
  8 10  1  0
  3 11  1  0
 11 12  1  0
 12 13  1  0
 13 14  1  0
 13 15  1  0
 13 16  1  0
 12 17  2  3
 17 18  1  0
 18 19  2  3
 19 20  1  0
 20 21  2  3
 21 22  1  0
 22 23  2  0
  2  3  2  0
  3  4  1  0
  4  5  2  0
  5  6  1  0
  6  7  2  0
  7  2  1  0
M  END

$$$$
