No_979-gen_results/8p0m/2024-11-27-11-27-31/
     RDKit          3D

 14 14  0  0  0  0  0  0  0  0999 V2000
  -28.1229   -1.3353   28.4874 O   0  0  0  0  0  0  0  0  0  0  0  0
  -27.0637   -0.8242   28.8687 C   0  0  0  0  0  0  0  0  0  0  0  0
  -25.9464   -1.0396   28.8492 C   0  0  0  0  0  0  0  0  0  0  0  0
  -25.3522   -2.2524   28.5471 C   0  0  0  0  0  0  0  0  0  0  0  0
  -27.2898    0.4084   29.7412 N   0  0  0  0  0  0  0  0  0  0  0  0
  -26.5773    1.2524   29.9265 C   0  0  0  0  0  0  0  0  0  0  0  0
  -25.1213    0.9407   29.8890 C   0  0  0  0  0  0  0  0  0  0  0  0
  -24.7388   -0.2039   29.4291 C   0  0  0  0  0  0  0  0  0  0  0  0
  -24.0451   -2.4708   28.4525 F   0  0  0  0  0  0  0  0  0  0  0  0
  -25.8981   -3.2762   29.4127 F   0  0  0  0  0  0  0  0  0  0  0  0
  -25.6015   -2.5625   27.2151 F   0  0  0  0  0  0  0  0  0  0  0  0
  -24.0849    1.9723   30.3593 C   0  0  0  0  0  0  0  0  0  0  0  0
  -24.4410    2.7674   31.2343 O   0  0  0  0  0  0  0  0  0  0  0  0
  -22.8338    1.7317   30.1152 O   0  0  0  0  0  0  0  0  0  0  0  0
  1  2  2  0
  2  3  1  0
  3  4  1  0
  2  5  1  0
  6  7  1  0
  3  8  1  0
  4  9  1  0
  4 10  1  0
  4 11  1  0
  7 12  1  0
 12 13  2  0
 12 14  1  0
  8  7  1  0
  6  5  1  0
M  END

$$$$
