No_910-gen_results/8p0m/2024-11-27-11-27-31/
     RDKit          3D

 15 16  0  0  0  0  0  0  0  0999 V2000
  -28.0162   -0.8135   28.8779 C   0  0  0  0  0  0  0  0  0  0  0  0
  -27.0636   -0.1189   28.6079 C   0  0  0  0  0  0  0  0  0  0  0  0
  -26.9515    1.1286   28.9566 N   0  0  0  0  0  0  0  0  0  0  0  0
  -27.7794   -1.6652   30.1072 C   0  0  0  0  0  0  0  0  0  0  0  0
  -26.1418    1.9311   29.1396 C   0  0  0  0  0  0  0  0  0  0  0  0
  -25.0282    1.9067   28.4328 C   0  0  0  0  0  0  0  0  0  0  0  0
  -24.7602    0.5634   27.8772 C   0  0  0  0  0  0  0  0  0  0  0  0
  -25.7901   -0.4669   27.9571 C   0  0  0  0  0  0  0  0  0  0  0  0
  -28.7120   -2.7277   30.4787 C   0  0  0  0  0  0  0  0  0  0  0  0
  -28.2693   -3.9428   30.7203 C   0  0  0  0  0  0  0  0  0  0  0  0
  -29.2733   -4.9571   30.9545 C   0  0  0  0  0  0  0  0  0  0  0  0
  -30.3696   -4.6159   30.9833 C   0  0  0  0  0  0  0  0  0  0  0  0
  -30.9379   -3.3652   30.7782 C   0  0  0  0  0  0  0  0  0  0  0  0
  -30.0056   -2.3819   30.4988 C   0  0  0  0  0  0  0  0  0  0  0  0
  -26.9660   -4.3267   30.5143 O   0  0  0  0  0  0  0  0  0  0  0  0
  1  2  1  0
  1  4  1  0
  9 10  1  0
 10 11  1  0
 12 13  1  0
  9 14  1  0
 13 14  1  0
 10 15  2  0
  4  9  1  0
 12 11  1  0
  2  3  2  0
  3  5  1  0
  5  6  2  0
  6  7  1  0
  7  8  2  0
  8  2  1  0
M  END

$$$$
