No_935-gen_results/8p0m/2024-11-27-11-27-31/
     RDKit          3D

 19 19  0  0  0  0  0  0  0  0999 V2000
  -28.0162   -0.8135   28.8779 C   0  0  0  0  0  0  0  0  0  0  0  0
  -28.4690   -0.7850   29.8287 C   0  0  0  0  0  0  0  0  0  0  0  0
  -26.5455   -0.8762   28.8500 C   0  0  0  0  0  0  0  0  0  0  0  0
  -25.8041   -1.0324   30.0571 C   0  0  0  0  0  0  0  0  0  0  0  0
  -26.5373   -1.0386   31.2171 C   0  0  0  0  0  0  0  0  0  0  0  0
  -27.8843   -0.9532   31.1862 C   0  0  0  0  0  0  0  0  0  0  0  0
  -24.1391   -1.1177   30.0459 Cl  0  0  0  0  0  0  0  0  0  0  0  0
  -30.0611   -0.6430   29.7304 C   0  0  0  0  0  0  0  0  0  0  0  0
  -30.6183    0.2857   30.3982 O   0  0  0  0  0  0  0  0  0  0  0  0
  -30.6654   -1.4760   29.0815 O   0  0  0  0  0  0  0  0  0  0  0  0
  -25.5485   -0.8126   27.3973 Cl  0  0  0  0  0  0  0  0  0  0  0  0
  -28.6187   -1.0001   32.3071 O   0  0  0  0  0  0  0  0  0  0  0  0
  -28.1716   -0.3357   33.3413 C   0  0  0  0  0  0  0  0  0  0  0  0
  -27.6893    0.8035   33.3886 C   0  0  0  0  0  0  0  0  0  0  0  0
  -28.5501    1.8298   33.6820 C   0  0  0  0  0  0  0  0  0  0  0  0
  -28.8384    2.6411   33.0048 C   0  0  0  0  0  0  0  0  0  0  0  0
  -27.9325    3.1191   31.9182 C   0  0  0  0  0  0  0  0  0  0  0  0
  -26.7123    2.3804   31.8654 C   0  0  0  0  0  0  0  0  0  0  0  0
  -25.6436    2.7725   30.9644 C   0  0  0  0  0  0  0  0  0  0  0  0
  4  7  1  0
  2  8  1  0
  8  9  2  0
  8 10  1  0
  3 11  1  0
  6 12  1  0
 12 13  1  0
 13 14  3  0
 14 15  1  0
 15 16  2  3
 16 17  1  0
 17 18  2  3
 18 19  1  0
  1  2  2  0
  2  6  1  0
  6  5  2  0
  5  4  1  0
  4  3  2  0
  3  1  1  0
M  END

$$$$
