No_951-gen_results/8p0m/2024-11-27-11-27-31/
     RDKit          3D

 16 17  0  0  0  0  0  0  0  0999 V2000
  -28.0162   -0.8135   28.8779 C   0  0  0  0  0  0  0  0  0  0  0  0
  -27.0636   -0.1190   28.6079 C   0  0  0  0  0  0  0  0  0  0  0  0
  -25.7923   -0.4302   29.0761 C   0  0  0  0  0  0  0  0  0  0  0  0
  -25.5756   -1.5654   29.9363 C   0  0  0  0  0  0  0  0  0  0  0  0
  -26.7354   -2.3004   30.2173 C   0  0  0  0  0  0  0  0  0  0  0  0
  -27.9184   -1.9537   29.7629 C   0  0  0  0  0  0  0  0  0  0  0  0
  -27.1148    1.3528   27.5928 P   0  0  0  0  0  0  0  0  0  0  0  0
  -26.4546    1.0674   26.4861 O   0  0  0  0  0  0  0  0  0  0  0  0
  -28.6437    1.5278   27.3049 O   0  0  0  0  0  0  0  0  0  0  0  0
  -26.5881    2.4978   28.3669 O   0  0  0  0  0  0  0  0  0  0  0  0
  -29.0563   -2.7656   30.2197 C   0  0  0  0  0  0  0  0  0  0  0  0
  -29.4910   -2.6883   31.1635 N   0  0  0  0  0  0  0  0  0  0  0  0
  -30.6169   -3.5229   31.6042 C   0  0  0  0  0  0  0  0  0  0  0  0
  -31.0387   -4.3970   30.6431 C   0  0  0  0  0  0  0  0  0  0  0  0
  -30.4694   -4.5578   29.4401 C   0  0  0  0  0  0  0  0  0  0  0  0
  -29.4011   -3.7366   29.2812 N   0  0  0  0  0  0  0  0  0  0  0  0
  2  7  1  0
  7  8  2  0
  7  9  1  0
  7 10  1  0
  6 11  1  0
 11 12  2  0
 12 13  1  0
 13 14  2  0
 14 15  1  0
 15 16  2  0
 16 11  1  0
  1  2  2  0
  2  3  1  0
  3  4  2  0
  4  5  1  0
  5  6  2  0
  6  1  1  0
M  END

$$$$
