No_969-gen_results/8p0m/2024-11-27-11-27-31/
     RDKit          3D

 35 38  0  0  0  0  0  0  0  0999 V2000
  -28.0162   -0.8135   28.8779 C   0  0  0  0  0  0  0  0  0  0  0  0
  -28.4690   -0.7850   29.8287 C   0  0  0  0  0  0  0  0  0  0  0  0
  -26.5042   -0.7777   28.8766 C   0  0  0  0  0  0  0  0  0  0  0  0
  -25.8103   -0.8531   30.1028 C   0  0  0  0  0  0  0  0  0  0  0  0
  -27.9906   -0.8916   31.2257 C   0  0  0  0  0  0  0  0  0  0  0  0
  -26.6042   -0.8676   31.2652 C   0  0  0  0  0  0  0  0  0  0  0  0
  -30.2937   -0.8377   29.8355 Cl  0  0  0  0  0  0  0  0  0  0  0  0
  -24.3700   -0.8208   30.1393 C   0  0  0  0  0  0  0  0  0  0  0  0
  -23.7914    0.5375   30.1250 C   0  0  0  0  0  0  0  0  0  0  0  0
  -22.5631    0.6963   29.4364 C   0  0  0  0  0  0  0  0  0  0  0  0
  -21.8309   -0.4850   29.0506 C   0  0  0  0  0  0  0  0  0  0  0  0
  -22.4420   -1.6624   29.0597 N   0  0  0  0  0  0  0  0  0  0  0  0
  -23.6873   -1.8182   29.5147 C   0  0  0  0  0  0  0  0  0  0  0  0
  -24.1822   -2.9698   29.5760 O   0  0  0  0  0  0  0  0  0  0  0  0
  -20.6316   -0.2261   28.5196 N   0  0  0  0  0  0  0  0  0  0  0  0
  -25.9430   -0.6355   27.6612 O   0  0  0  0  0  0  0  0  0  0  0  0
  -25.9458    0.5339   26.9318 C   0  0  0  0  0  0  0  0  0  0  0  0
  -25.2624    0.4842   25.7237 C   0  0  0  0  0  0  0  0  0  0  0  0
  -26.5074    1.7309   27.3289 C   0  0  0  0  0  0  0  0  0  0  0  0
  -26.5316    2.8152   26.5570 C   0  0  0  0  0  0  0  0  0  0  0  0
  -27.1551    3.9301   27.0339 C   0  0  0  0  0  0  0  0  0  0  0  0
  -27.9657    3.8983   28.0291 C   0  0  0  0  0  0  0  0  0  0  0  0
  -27.9946    2.7202   28.8943 C   0  0  0  0  0  0  0  0  0  0  0  0
  -27.3089    1.6829   28.5377 C   0  0  0  0  0  0  0  0  0  0  0  0
  -26.4150    1.9039   29.7057 C   0  0  0  0  0  0  0  0  0  0  0  0
  -29.0430    2.7426   29.9845 C   0  0  0  0  0  0  0  0  0  0  0  0
  -30.3546    2.7170   29.6276 C   0  0  0  0  0  0  0  0  0  0  0  0
  -28.6427    2.8342   31.3749 C   0  0  0  0  0  0  0  0  0  0  0  0
  -29.5967    2.6612   32.3830 C   0  0  0  0  0  0  0  0  0  0  0  0
  -31.3369    2.6429   30.6841 C   0  0  0  0  0  0  0  0  0  0  0  0
  -30.9371    2.6594   32.0140 C   0  0  0  0  0  0  0  0  0  0  0  0
  -32.0050    2.5613   33.0695 C   0  0  0  0  0  0  0  0  0  0  0  0
  -31.8605    2.8146   34.2009 O   0  0  0  0  0  0  0  0  0  0  0  0
  -33.0590    1.7929   32.7019 O   0  0  0  0  0  0  0  0  0  0  0  0
  -30.7975    2.7019   28.2616 C   0  0  0  0  0  0  0  0  0  0  0  0
  2  7  1  0
  4  8  1  0
  8  9  1  0
 10 11  1  0
  8 13  1  0
 12 13  1  0
 13 14  2  0
 11 15  1  0
  3 16  1  0
 16 17  1  0
 17 18  2  0
 17 19  1  0
 24 25  1  0
 23 26  1  0
 31 32  1  0
 32 33  2  0
 32 34  1  0
 27 35  1  0
  9 10  1  0
 11 12  1  0
 26 27  2  0
 27 30  1  0
 30 31  2  0
 31 29  1  0
 29 28  2  0
 28 26  1  0
  1  2  2  0
  2  5  1  0
  5  6  2  0
  6  4  1  0
  4  3  2  0
  3  1  1  0
 19 20  2  0
 20 21  1  0
 21 22  2  0
 22 23  1  0
 23 24  2  0
 24 19  1  0
M  END

$$$$
