No_900-gen_results/8p0m/2024-11-27-11-27-31/
     RDKit          3D

 19 21  0  0  0  0  0  0  0  0999 V2000
  -28.0162   -0.8135   28.8779 C   0  0  0  0  0  0  0  0  0  0  0  0
  -27.0636   -0.1189   28.6079 C   0  0  0  0  0  0  0  0  0  0  0  0
  -25.7923   -0.4302   29.0761 C   0  0  0  0  0  0  0  0  0  0  0  0
  -25.2700   -0.0487   30.0123 C   0  0  0  0  0  0  0  0  0  0  0  0
  -28.5191   -0.6302   30.0918 C   0  0  0  0  0  0  0  0  0  0  0  0
  -27.6457   -0.5646   31.3559 C   0  0  0  0  0  0  0  0  0  0  0  0
  -26.2550   -0.2092   31.4004 C   0  0  0  0  0  0  0  0  0  0  0  0
  -29.8542   -1.0864   30.5161 C   0  0  0  0  0  0  0  0  0  0  0  0
  -30.1493   -2.2812   30.7905 C   0  0  0  0  0  0  0  0  0  0  0  0
  -31.4887   -2.7855   30.9997 C   0  0  0  0  0  0  0  0  0  0  0  0
  -32.4994   -1.8382   30.8514 C   0  0  0  0  0  0  0  0  0  0  0  0
  -30.7878   -0.0285   30.7671 C   0  0  0  0  0  0  0  0  0  0  0  0
  -32.1528   -0.4589   30.7941 C   0  0  0  0  0  0  0  0  0  0  0  0
  -27.0534    0.7733   27.3899 C   0  0  0  0  0  0  0  0  0  0  0  0
  -26.5825    2.0328   27.5317 C   0  0  0  0  0  0  0  0  0  0  0  0
  -27.5929    0.3667   26.1800 C   0  0  0  0  0  0  0  0  0  0  0  0
  -27.6282    1.0481   25.0526 C   0  0  0  0  0  0  0  0  0  0  0  0
  -26.5796    2.9175   26.4253 C   0  0  0  0  0  0  0  0  0  0  0  0
  -27.0993    2.4360   25.1526 C   0  0  0  0  0  0  0  0  0  0  0  0
  1  2  1  0
  2  3  1  0
  3  4  2  0
  1  5  1  0
  5  6  1  0
  4  7  1  0
  6  7  2  0
  5  8  1  0
  2 14  1  0
 14 15  2  0
 15 18  1  0
 18 19  2  0
 19 17  1  0
 17 16  2  0
 16 14  1  0
  8  9  2  0
  9 10  1  0
 10 11  2  0
 11 13  1  0
 13 12  2  0
 12  8  1  0
M  END

$$$$
