No_945-gen_results/8p0m/2024-11-27-11-27-31/
     RDKit          3D

 15 16  0  0  0  0  0  0  0  0999 V2000
  -28.0162   -0.8135   28.8779 C   0  0  0  0  0  0  0  0  0  0  0  0
  -27.0636   -0.1189   28.6079 C   0  0  0  0  0  0  0  0  0  0  0  0
  -26.9716    0.7139   27.5060 C   0  0  0  0  0  0  0  0  0  0  0  0
  -28.1053    0.7744   26.6421 C   0  0  0  0  0  0  0  0  0  0  0  0
  -29.2041    0.1179   27.0477 C   0  0  0  0  0  0  0  0  0  0  0  0
  -30.3488    0.2568   26.2203 C   0  0  0  0  0  0  0  0  0  0  0  0
  -29.1817   -0.6758   28.1173 C   0  0  0  0  0  0  0  0  0  0  0  0
  -30.8359    1.3105   25.9989 O   0  0  0  0  0  0  0  0  0  0  0  0
  -30.8848   -0.8428   25.6953 O   0  0  0  0  0  0  0  0  0  0  0  0
  -25.6727    1.4294   27.1413 C   0  0  0  0  0  0  0  0  0  0  0  0
  -24.5279    1.0664   27.7164 C   0  0  0  0  0  0  0  0  0  0  0  0
  -23.3130    1.8266   27.3582 C   0  0  0  0  0  0  0  0  0  0  0  0
  -23.4007    2.6890   26.2598 C   0  0  0  0  0  0  0  0  0  0  0  0
  -25.5626    2.3676   26.1049 C   0  0  0  0  0  0  0  0  0  0  0  0
  -24.5585    3.0682   25.7283 C   0  0  0  0  0  0  0  0  0  0  0  0
  5  6  1  0
  6  8  2  0
  6  9  1  0
  3 10  1  0
  1  2  2  0
  2  3  1  0
  3  4  2  0
  4  5  1  0
  5  7  2  0
  7  1  1  0
 10 11  2  0
 11 12  1  0
 12 13  2  0
 13 15  1  0
 15 14  2  0
 14 10  1  0
M  END

$$$$
