No_965-gen_results/8p0m/2024-11-27-11-27-31/
     RDKit          3D

 21 22  0  0  0  0  0  0  0  0999 V2000
  -28.0162   -0.8135   28.8779 C   0  0  0  0  0  0  0  0  0  0  0  0
  -27.0636   -0.1189   28.6079 C   0  0  0  0  0  0  0  0  0  0  0  0
  -26.9716    0.7139   27.5060 C   0  0  0  0  0  0  0  0  0  0  0  0
  -25.8205    1.4909   27.1160 C   0  0  0  0  0  0  0  0  0  0  0  0
  -24.8579    1.3421   27.6008 C   0  0  0  0  0  0  0  0  0  0  0  0
  -24.6224    0.5295   28.8144 C   0  0  0  0  0  0  0  0  0  0  0  0
  -25.7344   -0.1811   29.1908 C   0  0  0  0  0  0  0  0  0  0  0  0
  -29.1895   -0.0776   29.4325 C   0  0  0  0  0  0  0  0  0  0  0  0
  -29.3805   -0.0403   30.6562 C   0  0  0  0  0  0  0  0  0  0  0  0
  -30.3496   -0.6830   28.7029 O   0  0  0  0  0  0  0  0  0  0  0  0
  -23.5445    2.1815   27.3054 C   0  0  0  0  0  0  0  0  0  0  0  0
  -23.4225    2.5271   26.0661 O   0  0  0  0  0  0  0  0  0  0  0  0
  -22.5370    2.2867   28.0874 O   0  0  0  0  0  0  0  0  0  0  0  0
  -28.8029   -0.8167   31.6306 C   0  0  0  0  0  0  0  0  0  0  0  0
  -28.8042   -0.5040   32.9876 C   0  0  0  0  0  0  0  0  0  0  0  0
  -28.0002   -1.0538   33.8469 C   0  0  0  0  0  0  0  0  0  0  0  0
  -28.0941   -0.6734   35.2511 C   0  0  0  0  0  0  0  0  0  0  0  0
  -27.1560   -1.0178   36.1786 C   0  0  0  0  0  0  0  0  0  0  0  0
  -25.9124   -1.6205   35.7268 C   0  0  0  0  0  0  0  0  0  0  0  0
  -25.5665   -1.4552   34.4156 C   0  0  0  0  0  0  0  0  0  0  0  0
  -26.4663   -0.7837   33.6368 C   0  0  0  0  0  0  0  0  0  0  0  0
  1  2  2  3
  2  3  1  0
  3  4  1  0
  4  5  1  0
  5  6  1  0
  2  7  1  0
  6  7  1  0
  1  8  1  0
  8  9  1  0
  8 10  1  0
  5 11  1  0
 11 12  2  0
 11 13  1  0
  9 14  2  3
 14 15  1  0
 15 16  1  0
 16 17  2  0
 17 18  1  0
 18 19  2  0
 19 20  1  0
 20 21  2  0
 21 16  1  0
M  END

$$$$
