No_961-gen_results/8p0m/2024-11-27-11-27-31/
     RDKit          3D

 10 10  0  0  0  0  0  0  0  0999 V2000
  -28.0727   -1.2542   28.5316 F   0  0  0  0  0  0  0  0  0  0  0  0
  -27.0607   -0.6291   28.8721 C   0  0  0  0  0  0  0  0  0  0  0  0
  -27.1759    0.6153   29.3693 C   0  0  0  0  0  0  0  0  0  0  0  0
  -25.7305   -1.2692   28.7241 C   0  0  0  0  0  0  0  0  0  0  0  0
  -24.5526   -0.5078   29.0132 C   0  0  0  0  0  0  0  0  0  0  0  0
  -25.9545    1.3798   29.6888 C   0  0  0  0  0  0  0  0  0  0  0  0
  -24.6583    0.8010   29.5182 C   0  0  0  0  0  0  0  0  0  0  0  0
  -23.4564    1.5405   29.7975 C   0  0  0  0  0  0  0  0  0  0  0  0
  -23.5457    2.4966   30.4084 O   0  0  0  0  0  0  0  0  0  0  0  0
  -22.2847    0.9369   29.6757 O   0  0  0  0  0  0  0  0  0  0  0  0
  1  2  1  0
  7  8  1  0
  8  9  2  0
  8 10  1  0
  2  3  2  0
  3  6  1  0
  6  7  2  0
  7  5  1  0
  5  4  2  0
  4  2  1  0
M  END

$$$$
