No_958-gen_results/8p0m/2024-11-27-11-27-31/
     RDKit          3D

 24 26  0  0  0  0  0  0  0  0999 V2000
  -28.0162   -0.8135   28.8779 C   0  0  0  0  0  0  0  0  0  0  0  0
  -28.4690   -0.7850   29.8287 C   0  0  0  0  0  0  0  0  0  0  0  0
  -26.5042   -0.7777   28.8766 C   0  0  0  0  0  0  0  0  0  0  0  0
  -25.8103   -0.8531   30.1028 C   0  0  0  0  0  0  0  0  0  0  0  0
  -27.9906   -0.8916   31.2257 C   0  0  0  0  0  0  0  0  0  0  0  0
  -26.6042   -0.8676   31.2652 C   0  0  0  0  0  0  0  0  0  0  0  0
  -24.3894   -0.8049   30.1638 C   0  0  0  0  0  0  0  0  0  0  0  0
  -23.8172    0.4762   29.9118 C   0  0  0  0  0  0  0  0  0  0  0  0
  -22.5010    0.5449   29.4097 C   0  0  0  0  0  0  0  0  0  0  0  0
  -21.7696   -0.6524   29.2129 C   0  0  0  0  0  0  0  0  0  0  0  0
  -23.6939   -1.8206   29.2518 C   0  0  0  0  0  0  0  0  0  0  0  0
  -22.3030   -1.7892   29.1620 C   0  0  0  0  0  0  0  0  0  0  0  0
  -23.8494   -1.2378   31.6696 C   0  0  0  0  0  0  0  0  0  0  0  0
  -24.4424    1.7398   30.3523 C   0  0  0  0  0  0  0  0  0  0  0  0
  -24.9066    2.4865   29.4366 O   0  0  0  0  0  0  0  0  0  0  0  0
  -24.7867    1.8824   31.6856 O   0  0  0  0  0  0  0  0  0  0  0  0
  -30.0769   -0.8418   29.8013 C   0  0  0  0  0  0  0  0  0  0  0  0
  -30.4995   -0.3992   28.8414 O   0  0  0  0  0  0  0  0  0  0  0  0
  -30.7730   -1.3231   30.8334 N   0  0  0  0  0  0  0  0  0  0  0  0
  -32.2106   -1.3880   30.7660 C   0  0  0  0  0  0  0  0  0  0  0  0
  -32.8412   -2.0532   31.4352 C   0  0  0  0  0  0  0  0  0  0  0  0
  -32.2290   -2.7747   32.5777 C   0  0  0  0  0  0  0  0  0  0  0  0
  -30.8172   -2.8054   32.6978 C   0  0  0  0  0  0  0  0  0  0  0  0
  -30.1094   -2.1862   31.7854 C   0  0  0  0  0  0  0  0  0  0  0  0
  4  7  1  0
  7  8  1  0
  9 10  1  0
  7 11  1  0
 10 12  1  0
 11 12  1  0
  7 13  1  0
  8 14  1  0
 14 15  2  0
 14 16  1  0
  2 17  1  0
 17 18  2  0
 17 19  1  0
 19 20  1  0
 21 22  1  0
 19 24  1  0
 23 24  1  0
 20 21  1  0
 22 23  1  0
  8  9  1  0
  1  2  2  0
  2  5  1  0
  5  6  2  0
  6  4  1  0
  4  3  2  0
  3  1  1  0
M  END

$$$$
