No_909-gen_results/8p0m/2024-11-27-11-27-31/
     RDKit          3D

 11 12  0  0  0  0  0  0  0  0999 V2000
  -28.1229   -1.3353   28.4874 O   0  0  0  0  0  0  0  0  0  0  0  0
  -27.0637   -0.8242   28.8687 C   0  0  0  0  0  0  0  0  0  0  0  0
  -25.9464   -1.0396   28.8492 C   0  0  0  0  0  0  0  0  0  0  0  0
  -24.7602   -0.1562   29.1644 C   0  0  0  0  0  0  0  0  0  0  0  0
  -25.0917    1.0791   29.6491 C   0  0  0  0  0  0  0  0  0  0  0  0
  -26.4090    1.4383   29.7067 C   0  0  0  0  0  0  0  0  0  0  0  0
  -27.3694    0.6586   29.4148 C   0  0  0  0  0  0  0  0  0  0  0  0
  -23.3620   -0.5666   29.1028 C   0  0  0  0  0  0  0  0  0  0  0  0
  -22.4896   -0.1486   29.8501 C   0  0  0  0  0  0  0  0  0  0  0  0
  -22.6929    1.2255   30.3526 C   0  0  0  0  0  0  0  0  0  0  0  0
  -23.9033    1.7607   30.2987 C   0  0  0  0  0  0  0  0  0  0  0  0
  1  2  2  0
  2  3  1  0
  3  4  1  0
  5  6  1  0
  2  7  1  0
  6  7  1  0
  4  5  2  0
  5 11  1  0
 11 10  2  0
 10  9  1  0
  9  8  2  0
  8  4  1  0
M  END

$$$$
