No_998-gen_results/8p0m/2024-11-27-11-27-31/
     RDKit          3D

 14 15  0  0  0  0  0  0  0  0999 V2000
  -28.0162   -0.8135   28.8779 C   0  0  0  0  0  0  0  0  0  0  0  0
  -27.0636   -0.1189   28.6079 C   0  0  0  0  0  0  0  0  0  0  0  0
  -26.9849    0.5972   27.5218 N   0  0  0  0  0  0  0  0  0  0  0  0
  -29.2310   -0.0747   28.7897 C   0  0  0  0  0  0  0  0  0  0  0  0
  -29.4105    0.6019   27.5567 C   0  0  0  0  0  0  0  0  0  0  0  0
  -25.7973    1.2179   26.9959 C   0  0  0  0  0  0  0  0  0  0  0  0
  -28.2116    1.3565   27.1678 C   0  0  0  0  0  0  0  0  0  0  0  0
  -24.6403    0.7643   27.5687 C   0  0  0  0  0  0  0  0  0  0  0  0
  -23.4407    1.5723   27.4005 C   0  0  0  0  0  0  0  0  0  0  0  0
  -23.3880    2.3973   26.2709 C   0  0  0  0  0  0  0  0  0  0  0  0
  -25.5373    2.5497   26.3438 C   0  0  0  0  0  0  0  0  0  0  0  0
  -24.4705    3.0610   25.8757 C   0  0  0  0  0  0  0  0  0  0  0  0
  -30.4928    0.5544   26.7316 C   0  0  0  0  0  0  0  0  0  0  0  0
  -31.5061    0.1857   27.0739 O   0  0  0  0  0  0  0  0  0  0  0  0
  1  2  1  0
  2  3  1  0
  1  4  1  0
  4  5  1  0
  3  6  1  0
  3  7  1  0
  5  7  1  0
  5 13  1  0
 13 14  2  0
  6  8  2  0
  8  9  1  0
  9 10  2  0
 10 12  1  0
 12 11  2  0
 11  6  1  0
M  END

$$$$
