No_996-gen_results/8p0m/2024-11-27-11-27-31/
     RDKit          3D

 13 14  0  0  0  0  0  0  0  0999 V2000
  -28.0162   -0.8135   28.8779 C   0  0  0  0  0  0  0  0  0  0  0  0
  -28.4690   -0.7850   29.8287 C   0  0  0  0  0  0  0  0  0  0  0  0
  -26.5455   -0.8762   28.8500 C   0  0  0  0  0  0  0  0  0  0  0  0
  -25.8041   -1.0324   30.0571 C   0  0  0  0  0  0  0  0  0  0  0  0
  -27.9437   -0.9869   31.2075 C   0  0  0  0  0  0  0  0  0  0  0  0
  -26.5825   -1.0386   31.2231 C   0  0  0  0  0  0  0  0  0  0  0  0
  -29.9659   -0.7667   30.0780 N   0  0  0  0  0  0  0  0  0  0  0  0
  -30.6257   -1.8500   30.2199 C   0  0  0  0  0  0  0  0  0  0  0  0
  -32.0208   -1.8019   30.0497 C   0  0  0  0  0  0  0  0  0  0  0  0
  -30.6236    0.0867   29.1191 C   0  0  0  0  0  0  0  0  0  0  0  0
  -31.9784    0.2006   29.1179 C   0  0  0  0  0  0  0  0  0  0  0  0
  -32.6664   -1.0156   29.1402 C   0  0  0  0  0  0  0  0  0  0  0  0
  -29.8345    0.9206   28.4585 O   0  0  0  0  0  0  0  0  0  0  0  0
  2  7  1  0
  7  8  1  0
  7 10  1  0
 10 11  1  0
  9 12  1  0
 11 12  1  0
 10 13  2  0
  8  9  1  0
  1  2  2  0
  2  5  1  0
  5  6  2  0
  6  4  1  0
  4  3  2  0
  3  1  1  0
M  END

$$$$
