No_994-gen_results/8p0m/2024-11-27-11-27-31/
     RDKit          3D

 20 22  0  0  0  0  0  0  0  0999 V2000
  -28.0162   -0.8135   28.8779 C   0  0  0  0  0  0  0  0  0  0  0  0
  -27.0636   -0.1189   28.6079 C   0  0  0  0  0  0  0  0  0  0  0  0
  -26.9716    0.7139   27.5060 C   0  0  0  0  0  0  0  0  0  0  0  0
  -25.8205    1.4909   27.1160 C   0  0  0  0  0  0  0  0  0  0  0  0
  -24.8579    1.3421   27.6008 C   0  0  0  0  0  0  0  0  0  0  0  0
  -24.6224    0.5295   28.8144 C   0  0  0  0  0  0  0  0  0  0  0  0
  -25.7344   -0.1811   29.1908 C   0  0  0  0  0  0  0  0  0  0  0  0
  -29.2135   -0.0949   29.3828 C   0  0  0  0  0  0  0  0  0  0  0  0
  -30.3379   -0.8506   29.8335 C   0  0  0  0  0  0  0  0  0  0  0  0
  -23.5197    2.1442   27.2948 C   0  0  0  0  0  0  0  0  0  0  0  0
  -23.3618    2.4417   26.0554 O   0  0  0  0  0  0  0  0  0  0  0  0
  -22.7705    2.6844   28.1927 O   0  0  0  0  0  0  0  0  0  0  0  0
  -30.6007   -0.9002   31.0670 C   0  0  0  0  0  0  0  0  0  0  0  0
  -30.4265    0.2192   31.8633 C   0  0  0  0  0  0  0  0  0  0  0  0
  -29.4303    1.1314   31.4563 C   0  0  0  0  0  0  0  0  0  0  0  0
  -28.6453    0.6326   30.7066 C   0  0  0  0  0  0  0  0  0  0  0  0
  -29.6691    0.9847   28.4411 C   0  0  0  0  0  0  0  0  0  0  0  0
  -29.6507    0.9795   27.2121 N   0  0  0  0  0  0  0  0  0  0  0  0
  -30.7158    0.7417   26.4916 C   0  0  0  0  0  0  0  0  0  0  0  0
  -28.2948    0.7920   26.5956 C   0  0  0  0  0  0  0  0  0  0  0  0
  1  8  1  0
  8  9  1  0
  5 10  1  0
 10 11  2  0
 10 12  1  0
  9 13  1  0
 13 14  1  0
  8 16  1  0
 15 16  1  0
  8 17  1  0
 17 18  1  0
 18 19  1  0
  3 20  1  0
 18 20  1  0
  1  2  1  0
 14 15  1  0
  2  3  2  0
  3  4  1  0
  4  5  2  0
  5  6  1  0
  6  7  2  0
  7  2  1  0
M  END

$$$$
