No_99-gen_results/8p0m/2024-11-27-11-27-31/
     RDKit          3D

 18 19  0  0  0  0  0  0  0  0999 V2000
  -28.0162   -0.8135   28.8779 C   0  0  0  0  0  0  0  0  0  0  0  0
  -27.0636   -0.1189   28.6079 C   0  0  0  0  0  0  0  0  0  0  0  0
  -25.7647   -0.3897   29.0360 C   0  0  0  0  0  0  0  0  0  0  0  0
  -25.5296   -1.5302   29.9014 C   0  0  0  0  0  0  0  0  0  0  0  0
  -26.6888   -2.2893   30.1810 C   0  0  0  0  0  0  0  0  0  0  0  0
  -27.8727   -1.9508   29.7373 C   0  0  0  0  0  0  0  0  0  0  0  0
  -29.1941   -2.9228   30.2191 Cl  0  0  0  0  0  0  0  0  0  0  0  0
  -24.5326    0.4193   28.7249 C   0  0  0  0  0  0  0  0  0  0  0  0
  -23.3426    0.1084   29.1746 C   0  0  0  0  0  0  0  0  0  0  0  0
  -23.1956   -1.1870   29.8223 C   0  0  0  0  0  0  0  0  0  0  0  0
  -24.2588   -1.9382   30.2802 C   0  0  0  0  0  0  0  0  0  0  0  0
  -22.1176    0.7912   28.7781 C   0  0  0  0  0  0  0  0  0  0  0  0
  -22.2273    2.0098   28.2035 N   0  0  0  0  0  0  0  0  0  0  0  0
  -20.9108    0.1366   28.7935 N   0  0  0  0  0  0  0  0  0  0  0  0
  -27.1860    1.0720   27.6573 C   0  0  0  0  0  0  0  0  0  0  0  0
  -27.5451    0.6671   26.5432 F   0  0  0  0  0  0  0  0  0  0  0  0
  -28.1923    1.8662   28.2331 F   0  0  0  0  0  0  0  0  0  0  0  0
  -26.4163    2.0379   27.8400 F   0  0  0  0  0  0  0  0  0  0  0  0
  6  7  1  0
  9 12  1  0
 12 13  2  0
 12 14  1  0
  2 15  1  0
 15 16  1  0
 15 17  1  0
 15 18  1  0
  1  2  2  0
  2  3  1  0
  4  5  1  0
  5  6  2  0
  6  1  1  0
  3  4  2  0
  4 11  1  0
 11 10  2  0
 10  9  1  0
  9  8  2  0
  8  3  1  0
M  END

$$$$
