No_937-gen_results/8p0m/2024-11-27-11-27-31/
     RDKit          3D

 19 20  0  0  0  0  0  0  0  0999 V2000
  -28.0162   -0.8135   28.8779 C   0  0  0  0  0  0  0  0  0  0  0  0
  -27.0636   -0.1190   28.6079 C   0  0  0  0  0  0  0  0  0  0  0  0
  -25.7647   -0.3897   29.0360 C   0  0  0  0  0  0  0  0  0  0  0  0
  -25.5296   -1.5302   29.9014 C   0  0  0  0  0  0  0  0  0  0  0  0
  -26.6577   -2.2915   30.2035 C   0  0  0  0  0  0  0  0  0  0  0  0
  -27.8548   -1.9555   29.7630 C   0  0  0  0  0  0  0  0  0  0  0  0
  -24.5349    0.4128   28.7431 C   0  0  0  0  0  0  0  0  0  0  0  0
  -24.4835    1.2431   27.7398 C   0  0  0  0  0  0  0  0  0  0  0  0
  -25.0977    1.6893   26.9916 C   0  0  0  0  0  0  0  0  0  0  0  0
  -26.4846    1.2565   26.8743 C   0  0  0  0  0  0  0  0  0  0  0  0
  -27.1887    0.5155   27.6251 C   0  0  0  0  0  0  0  0  0  0  0  0
  -22.8958    1.7966   27.7688 C   0  0  0  0  0  0  0  0  0  0  0  0
  -22.4725    2.1732   28.8865 F   0  0  0  0  0  0  0  0  0  0  0  0
  -22.3881    2.2969   26.7660 F   0  0  0  0  0  0  0  0  0  0  0  0
  -29.0512   -2.7581   30.1710 C   0  0  0  0  0  0  0  0  0  0  0  0
  -28.9462   -3.9860   30.2914 O   0  0  0  0  0  0  0  0  0  0  0  0
  -29.9948   -2.1966   30.8338 O   0  0  0  0  0  0  0  0  0  0  0  0
  -28.5860    0.5888   27.1979 O   0  0  0  0  0  0  0  0  0  0  0  0
  -28.8625    1.0436   25.9732 C   0  0  0  0  0  0  0  0  0  0  0  0
  3  7  1  0
  7  8  1  0
  8  9  2  0
  9 10  1  0
  2 11  1  0
 10 11  2  0
  8 12  1  0
 12 13  1  0
 12 14  1  0
  6 15  1  0
 15 16  2  0
 15 17  1  0
 11 18  1  0
 18 19  1  0
  1  2  2  0
  2  3  1  0
  3  4  2  0
  4  5  1  0
  5  6  2  0
  6  1  1  0
M  END

$$$$
