No_997-gen_results/8p0m/2024-11-27-11-27-31/
     RDKit          3D

 21 23  0  0  0  0  0  0  0  0999 V2000
  -28.0162   -0.8135   28.8779 C   0  0  0  0  0  0  0  0  0  0  0  0
  -28.4690   -0.7850   29.8287 C   0  0  0  0  0  0  0  0  0  0  0  0
  -28.1960    0.3478   28.0550 C   0  0  0  0  0  0  0  0  0  0  0  0
  -29.0191    1.3501   28.3782 C   0  0  0  0  0  0  0  0  0  0  0  0
  -29.4107    0.1803   30.3782 C   0  0  0  0  0  0  0  0  0  0  0  0
  -29.6059    1.2495   29.6193 C   0  0  0  0  0  0  0  0  0  0  0  0
  -27.4597    0.3802   26.7091 C   0  0  0  0  0  0  0  0  0  0  0  0
  -26.6620    1.4083   26.5085 N   0  0  0  0  0  0  0  0  0  0  0  0
  -25.4040    1.1977   26.0613 C   0  0  0  0  0  0  0  0  0  0  0  0
  -24.4170    2.2550   26.1450 C   0  0  0  0  0  0  0  0  0  0  0  0
  -23.0482    1.9968   26.1814 C   0  0  0  0  0  0  0  0  0  0  0  0
  -22.2320    1.9622   27.3064 C   0  0  0  0  0  0  0  0  0  0  0  0
  -20.9119    1.3766   27.2081 C   0  0  0  0  0  0  0  0  0  0  0  0
  -27.2904    2.5296   25.6777 C   0  0  0  0  0  0  0  0  0  0  0  0
  -20.2945    1.1430   28.4998 C   0  0  0  0  0  0  0  0  0  0  0  0
  -21.2937    0.5830   29.4687 C   0  0  0  0  0  0  0  0  0  0  0  0
  -22.6617    0.7894   29.4503 C   0  0  0  0  0  0  0  0  0  0  0  0
  -23.1184    1.5062   28.4765 C   0  0  0  0  0  0  0  0  0  0  0  0
  -24.9982    3.5902   26.2766 C   0  0  0  0  0  0  0  0  0  0  0  0
  -26.4093    3.7604   26.1538 C   0  0  0  0  0  0  0  0  0  0  0  0
  -27.6615   -0.3888   25.8456 O   0  0  0  0  0  0  0  0  0  0  0  0
  3  7  1  0
  7  8  1  0
  8  9  1  0
 10 11  1  0
  8 14  1  0
 10 19  1  0
 14 20  1  0
  7 21  2  0
 11 12  1  0
  9 10  1  0
 19 20  1  0
 12 13  2  0
 13 15  1  0
 15 16  2  0
 16 17  1  0
 17 18  2  0
 18 12  1  0
  1  2  2  0
  2  5  1  0
  5  6  2  0
  6  4  1  0
  4  3  2  0
  3  1  1  0
M  END

$$$$
