No_987-gen_results/8p0m/2024-11-27-11-27-31/
     RDKit          3D

 22 24  0  0  0  0  0  0  0  0999 V2000
  -28.0162   -0.8135   28.8779 C   0  0  0  0  0  0  0  0  0  0  0  0
  -28.4690   -0.7850   29.8287 C   0  0  0  0  0  0  0  0  0  0  0  0
  -28.1816    0.4277   28.1134 C   0  0  0  0  0  0  0  0  0  0  0  0
  -28.9841    1.4155   28.5154 C   0  0  0  0  0  0  0  0  0  0  0  0
  -28.3375   -2.0481   30.7873 C   0  0  0  0  0  0  0  0  0  0  0  0
  -29.5615    1.2930   29.7416 C   0  0  0  0  0  0  0  0  0  0  0  0
  -29.3196    0.1647   30.4451 C   0  0  0  0  0  0  0  0  0  0  0  0
  -28.8290   -2.9407   30.7339 O   0  0  0  0  0  0  0  0  0  0  0  0
  -27.6572   -1.7562   31.9390 O   0  0  0  0  0  0  0  0  0  0  0  0
  -27.4475    0.4875   26.7441 C   0  0  0  0  0  0  0  0  0  0  0  0
  -27.9988    0.9062   25.6334 C   0  0  0  0  0  0  0  0  0  0  0  0
  -29.3213    1.3063   25.6632 C   0  0  0  0  0  0  0  0  0  0  0  0
  -29.8412    2.0075   26.3785 C   0  0  0  0  0  0  0  0  0  0  0  0
  -29.7665    2.2424   27.5979 C   0  0  0  0  0  0  0  0  0  0  0  0
  -27.3351    0.4678   24.5895 F   0  0  0  0  0  0  0  0  0  0  0  0
  -26.2671   -0.1712   26.8535 O   0  0  0  0  0  0  0  0  0  0  0  0
  -25.2002    0.2285   27.7360 C   0  0  0  0  0  0  0  0  0  0  0  0
  -24.4727    1.3211   27.4471 C   0  0  0  0  0  0  0  0  0  0  0  0
  -23.3765    1.6012   28.2169 C   0  0  0  0  0  0  0  0  0  0  0  0
  -22.9099    0.7572   29.2505 C   0  0  0  0  0  0  0  0  0  0  0  0
  -24.7464   -0.7115   28.6736 C   0  0  0  0  0  0  0  0  0  0  0  0
  -23.6259   -0.4110   29.4731 C   0  0  0  0  0  0  0  0  0  0  0  0
  2  5  1  0
  5  8  2  0
  5  9  1  0
  3 10  1  0
 10 11  2  0
 11 12  1  0
 12 13  2  0
  4 14  1  0
 13 14  1  0
 11 15  1  0
 10 16  1  0
 16 17  1  0
 17 18  2  0
 18 19  1  0
 19 20  2  0
 20 22  1  0
 22 21  2  0
 21 17  1  0
  1  2  2  0
  2  7  1  0
  7  6  2  0
  6  4  1  0
  4  3  2  0
  3  1  1  0
M  END

$$$$
