No_966-gen_results/8p0m/2024-11-27-11-27-31/
     RDKit          3D

 25 27  0  0  0  0  0  0  0  0999 V2000
  -28.0162   -0.8135   28.8779 C   0  0  0  0  0  0  0  0  0  0  0  0
  -27.0636   -0.1190   28.6079 C   0  0  0  0  0  0  0  0  0  0  0  0
  -27.0010    0.6913   27.4910 C   0  0  0  0  0  0  0  0  0  0  0  0
  -25.8548    1.4825   27.0830 C   0  0  0  0  0  0  0  0  0  0  0  0
  -24.6901    1.4526   27.8807 C   0  0  0  0  0  0  0  0  0  0  0  0
  -24.7379    0.6010   29.0416 C   0  0  0  0  0  0  0  0  0  0  0  0
  -25.8234   -0.1688   29.3887 C   0  0  0  0  0  0  0  0  0  0  0  0
  -28.7568   -0.5479   30.0191 N   0  0  0  0  0  0  0  0  0  0  0  0
  -28.9317    0.3890   30.5031 C   0  0  0  0  0  0  0  0  0  0  0  0
  -29.0495    1.5382   29.9451 C   0  0  0  0  0  0  0  0  0  0  0  0
  -29.3672    1.6833   28.6426 C   0  0  0  0  0  0  0  0  0  0  0  0
  -28.4998    1.7453   27.5814 C   0  0  0  0  0  0  0  0  0  0  0  0
  -29.1705   -2.0088   30.6291 C   0  0  0  0  0  0  0  0  0  0  0  0
  -28.6492   -3.0261   30.1636 C   0  0  0  0  0  0  0  0  0  0  0  0
  -29.1997   -4.3548   30.5362 C   0  0  0  0  0  0  0  0  0  0  0  0
  -30.2366   -4.4473   31.4021 C   0  0  0  0  0  0  0  0  0  0  0  0
  -30.7824   -3.2624   31.8953 C   0  0  0  0  0  0  0  0  0  0  0  0
  -30.3482   -1.9936   31.4752 C   0  0  0  0  0  0  0  0  0  0  0  0
  -30.6936    1.7502   28.1274 C   0  0  0  0  0  0  0  0  0  0  0  0
  -31.1082    1.8105   27.1150 O   0  0  0  0  0  0  0  0  0  0  0  0
  -31.6330    2.0080   29.1276 O   0  0  0  0  0  0  0  0  0  0  0  0
  -23.4691    2.0867   27.4648 C   0  0  0  0  0  0  0  0  0  0  0  0
  -23.6708    3.1240   26.7746 F   0  0  0  0  0  0  0  0  0  0  0  0
  -22.7863    2.6252   28.5653 F   0  0  0  0  0  0  0  0  0  0  0  0
  -22.6264    1.2305   26.9070 F   0  0  0  0  0  0  0  0  0  0  0  0
  1  2  1  0
  1  8  1  0
  8  9  1  0
  9 10  2  3
 10 11  1  0
  3 12  1  0
 11 12  2  3
  8 13  1  0
 11 19  1  0
 19 20  2  0
 19 21  1  0
  5 22  1  0
 22 23  1  0
 22 24  1  0
 22 25  1  0
  2  3  2  0
  3  4  1  0
  4  5  2  0
  5  6  1  0
  6  7  2  0
  7  2  1  0
 13 14  2  0
 14 15  1  0
 15 16  2  0
 16 17  1  0
 17 18  2  0
 18 13  1  0
M  END

$$$$
