No_954-gen_results/8p0m/2024-11-27-11-27-31/
     RDKit          3D

 26 28  0  0  0  0  0  0  0  0999 V2000
  -28.0162   -0.8135   28.8779 C   0  0  0  0  0  0  0  0  0  0  0  0
  -27.0636   -0.1190   28.6079 C   0  0  0  0  0  0  0  0  0  0  0  0
  -26.9287    1.1713   29.0083 C   0  0  0  0  0  0  0  0  0  0  0  0
  -25.7702    2.0341   28.6884 C   0  0  0  0  0  0  0  0  0  0  0  0
  -24.7141    1.4431   27.9188 C   0  0  0  0  0  0  0  0  0  0  0  0
  -24.8590    0.0783   27.5836 C   0  0  0  0  0  0  0  0  0  0  0  0
  -25.9647   -0.6606   27.9164 C   0  0  0  0  0  0  0  0  0  0  0  0
  -27.9820   -1.6112   30.1028 N   0  0  0  0  0  0  0  0  0  0  0  0
  -23.5351    2.1704   27.5550 C   0  0  0  0  0  0  0  0  0  0  0  0
  -22.5169    1.7113   27.2110 O   0  0  0  0  0  0  0  0  0  0  0  0
  -23.8268    3.4665   27.1511 O   0  0  0  0  0  0  0  0  0  0  0  0
  -29.1049   -0.7216   28.4516 O   0  0  0  0  0  0  0  0  0  0  0  0
  -28.4920   -2.4937   30.5083 C   0  0  0  0  0  0  0  0  0  0  0  0
  -28.4333   -3.9473   30.0627 C   0  0  0  0  0  0  0  0  0  0  0  0
  -29.4115   -4.9302   30.4729 C   0  0  0  0  0  0  0  0  0  0  0  0
  -30.3940   -4.3523   30.8788 C   0  0  0  0  0  0  0  0  0  0  0  0
  -29.9260   -2.4915   31.0581 C   0  0  0  0  0  0  0  0  0  0  0  0
  -30.9653   -4.5903   32.3051 C   0  0  0  0  0  0  0  0  0  0  0  0
  -32.3596   -4.9205   32.3221 C   0  0  0  0  0  0  0  0  0  0  0  0
  -33.2244   -3.9113   32.2330 C   0  0  0  0  0  0  0  0  0  0  0  0
  -32.7731   -2.5958   32.2904 C   0  0  0  0  0  0  0  0  0  0  0  0
  -33.3394   -1.6000   31.5653 C   0  0  0  0  0  0  0  0  0  0  0  0
  -32.7952   -0.2762   31.5184 C   0  0  0  0  0  0  0  0  0  0  0  0
  -31.7385    0.0623   32.4049 C   0  0  0  0  0  0  0  0  0  0  0  0
  -31.2508   -0.9108   33.2656 C   0  0  0  0  0  0  0  0  0  0  0  0
  -31.7069   -2.2224   33.1692 C   0  0  0  0  0  0  0  0  0  0  0  0
  1  2  1  0
  1  8  1  0
  5  9  1  0
  9 10  2  0
  9 11  1  0
  1 12  2  0
  8 13  1  0
 13 14  1  0
 14 15  2  0
 15 16  1  0
 13 17  1  0
 16 17  2  0
 16 18  1  0
 18 19  1  0
 19 20  2  3
 20 21  1  0
  2  3  2  0
  3  4  1  0
  4  5  2  0
  5  6  1  0
  6  7  2  0
  7  2  1  0
 21 22  2  0
 22 23  1  0
 23 24  2  0
 24 25  1  0
 25 26  2  0
 26 21  1  0
M  END

$$$$
