No_92-gen_results/8p0m/2024-11-27-11-27-31/
     RDKit          3D

 15 17  0  0  0  0  0  0  0  0999 V2000
  -28.1229   -1.3353   28.4874 O   0  0  0  0  0  0  0  0  0  0  0  0
  -27.0637   -0.8242   28.8687 C   0  0  0  0  0  0  0  0  0  0  0  0
  -25.9464   -1.0396   28.8492 C   0  0  0  0  0  0  0  0  0  0  0  0
  -24.7602   -0.1562   29.1644 C   0  0  0  0  0  0  0  0  0  0  0  0
  -25.0917    1.0791   29.6491 C   0  0  0  0  0  0  0  0  0  0  0  0
  -26.4090    1.4383   29.7067 C   0  0  0  0  0  0  0  0  0  0  0  0
  -27.3694    0.6586   29.4148 C   0  0  0  0  0  0  0  0  0  0  0  0
  -23.3620   -0.5666   29.1028 C   0  0  0  0  0  0  0  0  0  0  0  0
  -22.4450    0.2927   28.4681 C   0  0  0  0  0  0  0  0  0  0  0  0
  -21.0546    0.0066   28.5227 C   0  0  0  0  0  0  0  0  0  0  0  0
  -20.8441   -1.2446   29.0013 N   0  0  0  0  0  0  0  0  0  0  0  0
  -22.7118   -1.6514   29.5380 N   0  0  0  0  0  0  0  0  0  0  0  0
  -21.6574   -2.0059   29.5109 C   0  0  0  0  0  0  0  0  0  0  0  0
  -22.9573    1.6497   28.0941 C   0  0  0  0  0  0  0  0  0  0  0  0
  -24.1886    2.0742   28.5384 C   0  0  0  0  0  0  0  0  0  0  0  0
  1  2  2  0
  2  3  1  0
  3  4  1  0
  5  6  1  0
  2  7  1  0
  6  7  1  0
  4  5  2  0
  5 15  1  0
 15 14  2  0
 14  9  1  0
  8  4  1  0
  8  9  2  0
  9 10  1  0
 10 11  2  0
 11 13  1  0
 13 12  2  0
 12  8  1  0
M  END

$$$$
