No_931-gen_results/8p0m/2024-11-27-11-27-31/
     RDKit          3D

 20 21  0  0  0  0  0  0  0  0999 V2000
  -28.0162   -0.8135   28.8779 C   0  0  0  0  0  0  0  0  0  0  0  0
  -27.0636   -0.1189   28.6079 C   0  0  0  0  0  0  0  0  0  0  0  0
  -25.7647   -0.3897   29.0360 C   0  0  0  0  0  0  0  0  0  0  0  0
  -24.5517    0.4058   28.7646 C   0  0  0  0  0  0  0  0  0  0  0  0
  -24.6957    1.4480   27.7988 C   0  0  0  0  0  0  0  0  0  0  0  0
  -25.9755    1.7250   27.3077 C   0  0  0  0  0  0  0  0  0  0  0  0
  -27.0718    1.0134   27.6535 C   0  0  0  0  0  0  0  0  0  0  0  0
  -28.6178   -0.4695   30.2207 C   0  0  0  0  0  0  0  0  0  0  0  0
  -28.4143    0.4013   30.8423 O   0  0  0  0  0  0  0  0  0  0  0  0
  -29.5416   -1.5401   30.6807 N   0  0  0  0  0  0  0  0  0  0  0  0
  -23.5032    2.2311   27.4962 C   0  0  0  0  0  0  0  0  0  0  0  0
  -22.3067    1.9787   27.4354 N   0  0  0  0  0  0  0  0  0  0  0  0
  -23.7757    3.4264   26.8722 O   0  0  0  0  0  0  0  0  0  0  0  0
  -30.2145   -1.3590   31.9963 C   0  0  0  0  0  0  0  0  0  0  0  0
  -29.8631   -2.7707   30.0877 C   0  0  0  0  0  0  0  0  0  0  0  0
  -31.2418   -3.2571   29.9319 C   0  0  0  0  0  0  0  0  0  0  0  0
  -31.2132   -4.5385   29.5882 C   0  0  0  0  0  0  0  0  0  0  0  0
  -30.0718   -5.3490   29.4175 C   0  0  0  0  0  0  0  0  0  0  0  0
  -28.8408   -4.8459   29.6993 C   0  0  0  0  0  0  0  0  0  0  0  0
  -28.7314   -3.6263   30.1886 C   0  0  0  0  0  0  0  0  0  0  0  0
  1  8  1  0
  8  9  2  0
  8 10  1  0
  5 11  1  0
 11 12  2  0
 11 13  1  0
 10 14  1  0
 10 15  1  0
  1  2  1  0
 15 16  2  0
 16 17  1  0
 17 18  2  0
 18 19  1  0
 19 20  2  0
 20 15  1  0
  2  3  2  0
  3  4  1  0
  4  5  2  0
  5  6  1  0
  6  7  2  0
  7  2  1  0
M  END

$$$$
