No_989-gen_results/8p0m/2024-11-27-11-27-31/
     RDKit          3D

 31 33  0  0  0  0  0  0  0  0999 V2000
  -28.0162   -0.8135   28.8779 C   0  0  0  0  0  0  0  0  0  0  0  0
  -27.0636   -0.1189   28.6079 C   0  0  0  0  0  0  0  0  0  0  0  0
  -25.7923   -0.4302   29.0761 C   0  0  0  0  0  0  0  0  0  0  0  0
  -25.5756   -1.5654   29.9363 C   0  0  0  0  0  0  0  0  0  0  0  0
  -26.7354   -2.3004   30.2173 C   0  0  0  0  0  0  0  0  0  0  0  0
  -27.9184   -1.9537   29.7629 C   0  0  0  0  0  0  0  0  0  0  0  0
  -29.0001   -2.7012   30.1151 O   0  0  0  0  0  0  0  0  0  0  0  0
  -24.5290    0.3490   28.7998 C   0  0  0  0  0  0  0  0  0  0  0  0
  -23.3442    0.0060   29.1658 C   0  0  0  0  0  0  0  0  0  0  0  0
  -22.1770    0.6792   28.8009 C   0  0  0  0  0  0  0  0  0  0  0  0
  -22.1905    1.6482   27.8069 C   0  0  0  0  0  0  0  0  0  0  0  0
  -24.6178    1.3510   27.7309 C   0  0  0  0  0  0  0  0  0  0  0  0
  -23.4037    2.0339   27.3553 C   0  0  0  0  0  0  0  0  0  0  0  0
  -30.1228   -2.1341   30.5874 C   0  0  0  0  0  0  0  0  0  0  0  0
  -30.5759   -2.8409   31.6821 C   0  0  0  0  0  0  0  0  0  0  0  0
  -29.7869   -3.6840   32.3598 C   0  0  0  0  0  0  0  0  0  0  0  0
  -31.1466   -1.9118   32.6817 O   0  0  0  0  0  0  0  0  0  0  0  0
  -30.4333   -4.7787   33.1763 C   0  0  0  0  0  0  0  0  0  0  0  0
  -29.7560   -5.8153   33.1899 O   0  0  0  0  0  0  0  0  0  0  0  0
  -31.1007   -1.9209   29.5012 C   0  0  0  0  0  0  0  0  0  0  0  0
  -31.2025   -0.7669   29.0121 O   0  0  0  0  0  0  0  0  0  0  0  0
  -31.8496    0.1998   29.4921 C   0  0  0  0  0  0  0  0  0  0  0  0
  -32.2150    1.0864   28.6000 C   0  0  0  0  0  0  0  0  0  0  0  0
  -32.9322    2.1989   29.0887 C   0  0  0  0  0  0  0  0  0  0  0  0
  -33.1669    2.2079   30.4517 C   0  0  0  0  0  0  0  0  0  0  0  0
  -32.7122    1.3064   31.3496 C   0  0  0  0  0  0  0  0  0  0  0  0
  -32.0160    0.3026   30.8825 C   0  0  0  0  0  0  0  0  0  0  0  0
  -32.9688    1.5106   32.7901 C   0  0  0  0  0  0  0  0  0  0  0  0
  -32.0166    1.7792   33.5618 N   0  0  0  0  0  0  0  0  0  0  0  0
  -31.0593    2.4735   33.2971 C   0  0  0  0  0  0  0  0  0  0  0  0
  -29.9356    2.6142   34.2478 C   0  0  0  0  0  0  0  0  0  0  0  0
  6  7  1  0
  3  8  1  0
  7 14  1  0
 14 15  1  0
 15 16  1  0
 15 17  1  0
 16 18  1  0
 18 19  1  0
 14 20  1  0
 20 21  1  0
 21 22  1  0
 26 28  1  0
 28 29  1  0
 29 30  1  0
 30 31  2  0
  1  2  2  0
  2  3  1  0
  3  4  2  0
  4  5  1  0
  5  6  2  0
  6  1  1  0
 22 23  2  0
 23 24  1  0
 24 25  2  0
 25 26  1  0
 26 27  2  0
 27 22  1  0
  8  9  2  0
  9 10  1  0
 10 11  2  0
 11 13  1  0
 13 12  2  0
 12  8  1  0
M  END

$$$$
