No_93-gen_results/8p0m/2024-11-27-11-27-31/
     RDKit          3D

 30 33  0  0  0  0  0  0  0  0999 V2000
  -28.0162   -0.8135   28.8779 C   0  0  0  0  0  0  0  0  0  0  0  0
  -28.4690   -0.7850   29.8287 C   0  0  0  0  0  0  0  0  0  0  0  0
  -26.5042   -0.7777   28.8766 C   0  0  0  0  0  0  0  0  0  0  0  0
  -25.8103   -0.8531   30.1028 C   0  0  0  0  0  0  0  0  0  0  0  0
  -27.9906   -0.8916   31.2257 C   0  0  0  0  0  0  0  0  0  0  0  0
  -26.6042   -0.8676   31.2652 C   0  0  0  0  0  0  0  0  0  0  0  0
  -30.0773   -0.8857   30.0240 C   0  0  0  0  0  0  0  0  0  0  0  0
  -30.6821   -0.3163   29.2532 O   0  0  0  0  0  0  0  0  0  0  0  0
  -30.6119   -1.2922   31.1199 O   0  0  0  0  0  0  0  0  0  0  0  0
  -25.3950   -0.7468   27.5444 Cl  0  0  0  0  0  0  0  0  0  0  0  0
  -31.8833   -0.0376   29.1219 C   0  0  0  0  0  0  0  0  0  0  0  0
  -32.3069    0.1975   27.9745 C   0  0  0  0  0  0  0  0  0  0  0  0
  -33.7302    0.5166   27.7205 C   0  0  0  0  0  0  0  0  0  0  0  0
  -34.5784    0.5701   28.8571 C   0  0  0  0  0  0  0  0  0  0  0  0
  -34.0180    0.3182   30.0836 C   0  0  0  0  0  0  0  0  0  0  0  0
  -32.6936    0.0397   30.2633 C   0  0  0  0  0  0  0  0  0  0  0  0
  -36.1855    0.9568   28.5915 Cl  0  0  0  0  0  0  0  0  0  0  0  0
  -34.8610    0.4265   31.1758 O   0  0  0  0  0  0  0  0  0  0  0  0
  -35.1393    1.5829   31.7402 C   0  0  0  0  0  0  0  0  0  0  0  0
  -36.3988    1.7555   32.1459 C   0  0  0  0  0  0  0  0  0  0  0  0
  -36.7664    3.0249   32.7708 C   0  0  0  0  0  0  0  0  0  0  0  0
  -34.2006    2.6123   31.9542 C   0  0  0  0  0  0  0  0  0  0  0  0
  -34.5027    3.8042   32.5459 C   0  0  0  0  0  0  0  0  0  0  0  0
  -35.7811    4.0109   32.9801 C   0  0  0  0  0  0  0  0  0  0  0  0
  -36.1514    5.2828   33.6281 C   0  0  0  0  0  0  0  0  0  0  0  0
  -35.2839    5.7758   34.4043 C   0  0  0  0  0  0  0  0  0  0  0  0
  -35.5805    7.0043   35.1779 C   0  0  0  0  0  0  0  0  0  0  0  0
  -36.8654    7.5651   34.9795 C   0  0  0  0  0  0  0  0  0  0  0  0
  -37.7350    6.9528   34.1126 C   0  0  0  0  0  0  0  0  0  0  0  0
  -37.4067    5.7722   33.4221 C   0  0  0  0  0  0  0  0  0  0  0  0
  2  7  1  0
  7  8  1  0
  7  9  2  0
  3 10  1  0
  8 11  1  0
 14 17  1  0
 15 18  1  0
 18 19  1  0
 24 25  1  0
 11 12  2  0
 12 13  1  0
 13 14  2  0
 14 15  1  0
 15 16  2  0
 16 11  1  0
 19 20  2  0
 20 21  1  0
 21 24  2  0
 24 23  1  0
 23 22  2  0
 22 19  1  0
  1  2  2  0
  2  5  1  0
  5  6  2  0
  6  4  1  0
  4  3  2  0
  3  1  1  0
 25 26  2  0
 26 27  1  0
 27 28  2  0
 28 29  1  0
 29 30  2  0
 30 25  1  0
M  END

$$$$
