No_925-gen_results/8p0m/2024-11-27-11-27-31/
     RDKit          3D

 15 15  0  0  0  0  0  0  0  0999 V2000
  -28.0162   -0.8135   28.8779 C   0  0  0  0  0  0  0  0  0  0  0  0
  -28.4690   -0.7850   29.8287 C   0  0  0  0  0  0  0  0  0  0  0  0
  -28.1816    0.4277   28.1134 C   0  0  0  0  0  0  0  0  0  0  0  0
  -27.4498    0.6435   26.8500 C   0  0  0  0  0  0  0  0  0  0  0  0
  -26.1815    0.0357   26.7145 C   0  0  0  0  0  0  0  0  0  0  0  0
  -25.7530   -0.9101   27.6815 C   0  0  0  0  0  0  0  0  0  0  0  0
  -26.5502   -1.2250   28.7228 C   0  0  0  0  0  0  0  0  0  0  0  0
  -28.5409   -1.9553   30.6018 O   0  0  0  0  0  0  0  0  0  0  0  0
  -29.1415    0.1637   30.6064 N   0  0  0  0  0  0  0  0  0  0  0  0
  -29.9649    0.0042   31.7832 C   0  0  0  0  0  0  0  0  0  0  0  0
  -27.7830    1.6258   25.8644 C   0  0  0  0  0  0  0  0  0  0  0  0
  -29.0993    1.6692   25.6038 C   0  0  0  0  0  0  0  0  0  0  0  0
  -26.8314    2.4613   25.3571 C   0  0  0  0  0  0  0  0  0  0  0  0
  -30.0119    1.6438   26.0799 C   0  0  0  0  0  0  0  0  0  0  0  0
  -31.4024    1.7350   25.5911 C   0  0  0  0  0  0  0  0  0  0  0  0
  1  2  1  0
  2  8  2  0
  2  9  1  0
  9 10  1  0
  4 11  1  0
 11 12  1  0
 11 13  1  0
 12 14  2  3
 14 15  1  0
  1  3  2  0
  3  4  1  0
  4  5  2  0
  5  6  1  0
  6  7  2  0
  7  1  1  0
M  END

$$$$
