No_973-gen_results/8p0m/2024-11-27-11-27-31/
     RDKit          3D

 14 15  0  0  0  0  0  0  0  0999 V2000
  -28.0162   -0.8135   28.8779 C   0  0  0  0  0  0  0  0  0  0  0  0
  -27.0636   -0.1189   28.6079 C   0  0  0  0  0  0  0  0  0  0  0  0
  -26.9716    0.7139   27.5060 C   0  0  0  0  0  0  0  0  0  0  0  0
  -28.1053    0.7744   26.6421 C   0  0  0  0  0  0  0  0  0  0  0  0
  -29.2008    0.1044   27.0527 C   0  0  0  0  0  0  0  0  0  0  0  0
  -29.2096   -0.6029   28.1853 C   0  0  0  0  0  0  0  0  0  0  0  0
  -30.2994    0.2279   26.2571 O   0  0  0  0  0  0  0  0  0  0  0  0
  -25.7189   -0.2206   29.4011 C   0  0  0  0  0  0  0  0  0  0  0  0
  -25.3784   -1.0981   29.9807 C   0  0  0  0  0  0  0  0  0  0  0  0
  -24.1016   -1.2301   30.7406 C   0  0  0  0  0  0  0  0  0  0  0  0
  -23.2011   -0.1756   30.6493 C   0  0  0  0  0  0  0  0  0  0  0  0
  -23.5747    0.9399   29.8331 C   0  0  0  0  0  0  0  0  0  0  0  0
  -24.8492    0.9696   29.1691 C   0  0  0  0  0  0  0  0  0  0  0  0
  -30.2489   -0.2607   25.0270 C   0  0  0  0  0  0  0  0  0  0  0  0
  5  7  1  0
  2  8  1  0
  7 14  1  0
  1  2  2  0
  2  3  1  0
  3  4  2  0
  4  5  1  0
  5  6  2  0
  6  1  1  0
  8  9  2  0
  9 10  1  0
 10 11  2  0
 11 12  1  0
 12 13  2  0
 13  8  1  0
M  END

$$$$
