No_939-gen_results/8p0m/2024-11-27-11-27-31/
     RDKit          3D

 17 19  0  0  0  0  0  0  0  0999 V2000
  -28.0162   -0.8135   28.8779 C   0  0  0  0  0  0  0  0  0  0  0  0
  -27.0636   -0.1190   28.6079 C   0  0  0  0  0  0  0  0  0  0  0  0
  -26.9716    0.7139   27.5060 C   0  0  0  0  0  0  0  0  0  0  0  0
  -28.1053    0.7744   26.6421 C   0  0  0  0  0  0  0  0  0  0  0  0
  -29.2008    0.1044   27.0527 C   0  0  0  0  0  0  0  0  0  0  0  0
  -29.2096   -0.6029   28.1853 C   0  0  0  0  0  0  0  0  0  0  0  0
  -30.6688    0.1865   26.2281 Cl  0  0  0  0  0  0  0  0  0  0  0  0
  -25.6861   -0.2409   29.3878 C   0  0  0  0  0  0  0  0  0  0  0  0
  -25.2654   -1.3165   30.0745 S   0  0  0  0  0  0  0  0  0  0  0  0
  -23.7095   -0.9697   30.3166 C   0  0  0  0  0  0  0  0  0  0  0  0
  -23.4619    0.2000   29.6718 C   0  0  0  0  0  0  0  0  0  0  0  0
  -24.6150    0.6543   29.0466 C   0  0  0  0  0  0  0  0  0  0  0  0
  -24.5801    1.8658   28.2275 C   0  0  0  0  0  0  0  0  0  0  0  0
  -23.6725    2.4517   28.4507 F   0  0  0  0  0  0  0  0  0  0  0  0
  -25.7998    2.7704   28.5761 C   0  0  0  0  0  0  0  0  0  0  0  0
  -24.6689    1.5785   26.7029 C   0  0  0  0  0  0  0  0  0  0  0  0
  -26.9744    2.1800   27.9141 C   0  0  0  0  0  0  0  0  0  0  0  0
  5  7  1  0
  2  8  1  0
  8  9  1  0
  9 10  1  0
 10 11  2  0
  8 12  1  0
 11 12  1  0
 12 13  1  0
 13 14  1  0
 13 15  1  0
 13 16  1  0
  3 17  1  0
 15 17  1  0
  1  2  2  0
  2  3  1  0
  3  4  2  0
  4  5  1  0
  5  6  2  0
  6  1  1  0
M  END

$$$$
