No_988-gen_results/8p0m/2024-11-27-11-27-31/
     RDKit          3D

 32 33  0  0  0  0  0  0  0  0999 V2000
  -28.0162   -0.8135   28.8779 C   0  0  0  0  0  0  0  0  0  0  0  0
  -28.4690   -0.7850   29.8287 C   0  0  0  0  0  0  0  0  0  0  0  0
  -28.1960    0.3478   28.0550 C   0  0  0  0  0  0  0  0  0  0  0  0
  -29.0191    1.3501   28.3782 C   0  0  0  0  0  0  0  0  0  0  0  0
  -29.4107    0.1803   30.3782 C   0  0  0  0  0  0  0  0  0  0  0  0
  -29.6059    1.2495   29.6193 C   0  0  0  0  0  0  0  0  0  0  0  0
  -27.4478    0.3799   26.7122 C   0  0  0  0  0  0  0  0  0  0  0  0
  -26.3948   -0.3659   26.7282 F   0  0  0  0  0  0  0  0  0  0  0  0
  -26.9979    1.6510   26.4073 F   0  0  0  0  0  0  0  0  0  0  0  0
  -28.2459    0.0532   25.6706 F   0  0  0  0  0  0  0  0  0  0  0  0
  -30.5442    2.3263   30.0555 C   0  0  0  0  0  0  0  0  0  0  0  0
  -30.1685    3.2120   30.7642 O   0  0  0  0  0  0  0  0  0  0  0  0
  -31.7196    2.2715   29.5087 O   0  0  0  0  0  0  0  0  0  0  0  0
  -28.2541   -2.0721   30.8191 C   0  0  0  0  0  0  0  0  0  0  0  0
  -28.0126   -2.0389   31.8777 O   0  0  0  0  0  0  0  0  0  0  0  0
  -28.3203   -3.2891   30.1206 O   0  0  0  0  0  0  0  0  0  0  0  0
  -28.2801   -4.4056   30.8589 C   0  0  0  0  0  0  0  0  0  0  0  0
  -28.7843   -5.5284   29.8294 C   0  0  0  0  0  0  0  0  0  0  0  0
  -30.2471   -5.2831   29.7244 C   0  0  0  0  0  0  0  0  0  0  0  0
  -30.9769   -4.8899   30.3475 O   0  0  0  0  0  0  0  0  0  0  0  0
  -30.5558   -5.6919   28.4251 O   0  0  0  0  0  0  0  0  0  0  0  0
  -31.7153   -5.3712   27.7837 C   0  0  0  0  0  0  0  0  0  0  0  0
  -32.8390   -5.8164   28.3166 C   0  0  0  0  0  0  0  0  0  0  0  0
  -33.8424   -5.3281   27.9200 O   0  0  0  0  0  0  0  0  0  0  0  0
  -33.7641   -4.2524   27.2470 C   0  0  0  0  0  0  0  0  0  0  0  0
  -32.3226   -4.2859   26.9698 C   0  0  0  0  0  0  0  0  0  0  0  0
  -31.7969   -4.3181   25.6180 O   0  0  0  0  0  0  0  0  0  0  0  0
  -34.1829   -2.9837   27.7011 N   0  0  0  0  0  0  0  0  0  0  0  0
  -33.5820   -2.4681   28.7673 C   0  0  0  0  0  0  0  0  0  0  0  0
  -35.2465   -2.2166   27.1083 C   0  0  0  0  0  0  0  0  0  0  0  0
  -33.9430   -1.2082   29.3594 C   0  0  0  0  0  0  0  0  0  0  0  0
  -33.5045   -0.8339   30.5809 C   0  0  0  0  0  0  0  0  0  0  0  0
  3  7  1  0
  7  8  1  0
  7  9  1  0
  7 10  1  0
  6 11  1  0
 11 12  2  0
 11 13  1  0
  2 14  1  0
 14 15  2  0
 14 16  1  0
 16 17  1  0
 17 18  1  0
 18 19  1  0
 19 20  2  0
 19 21  1  0
 21 22  1  0
 22 23  1  0
 23 24  1  0
 24 25  1  0
 22 26  1  0
 25 26  1  0
 26 27  1  0
 25 28  1  0
 28 29  1  0
 28 30  1  0
 29 31  2  3
 31 32  1  0
  1  2  2  0
  2  5  1  0
  5  6  2  0
  6  4  1  0
  4  3  2  0
  3  1  1  0
M  END

$$$$
