No_929-gen_results/8p0m/2024-11-27-11-27-31/
     RDKit          3D

 13 14  0  0  0  0  0  0  0  0999 V2000
  -28.0162   -0.8135   28.8779 C   0  0  0  0  0  0  0  0  0  0  0  0
  -27.0636   -0.1189   28.6079 C   0  0  0  0  0  0  0  0  0  0  0  0
  -27.0010    0.6913   27.4910 C   0  0  0  0  0  0  0  0  0  0  0  0
  -25.8548    1.4825   27.0830 C   0  0  0  0  0  0  0  0  0  0  0  0
  -24.6901    1.4526   27.8807 C   0  0  0  0  0  0  0  0  0  0  0  0
  -23.4878    2.1451   27.6011 C   0  0  0  0  0  0  0  0  0  0  0  0
  -25.8122   -0.1656   29.4299 C   0  0  0  0  0  0  0  0  0  0  0  0
  -24.6457    0.5887   29.0806 C   0  0  0  0  0  0  0  0  0  0  0  0
  -27.9103   -1.5571   30.0356 N   0  0  0  0  0  0  0  0  0  0  0  0
  -23.4628    3.0993   26.7831 N   0  0  0  0  0  0  0  0  0  0  0  0
  -22.2603    1.7290   28.0438 N   0  0  0  0  0  0  0  0  0  0  0  0
  -26.8110   -1.7907   30.7653 C   0  0  0  0  0  0  0  0  0  0  0  0
  -25.6964   -1.0531   30.4625 C   0  0  0  0  0  0  0  0  0  0  0  0
  5  6  1  0
  6 10  2  0
  6 11  1  0
  2  3  1  0
  3  4  2  0
  4  5  1  0
  5  8  2  0
  8  7  1  0
  1  2  2  0
  2  7  1  0
  7 13  2  0
 13 12  1  0
 12  9  2  0
  9  1  1  0
M  END

$$$$
