No_972-gen_results/8p0m/2024-11-27-11-27-31/
     RDKit          3D

 24 26  0  0  0  0  0  0  0  0999 V2000
  -28.0162   -0.8135   28.8779 C   0  0  0  0  0  0  0  0  0  0  0  0
  -27.0636   -0.1190   28.6079 C   0  0  0  0  0  0  0  0  0  0  0  0
  -26.9287    1.1713   29.0083 C   0  0  0  0  0  0  0  0  0  0  0  0
  -25.7702    2.0341   28.6884 C   0  0  0  0  0  0  0  0  0  0  0  0
  -24.7141    1.4431   27.9188 C   0  0  0  0  0  0  0  0  0  0  0  0
  -24.8590    0.0783   27.5836 C   0  0  0  0  0  0  0  0  0  0  0  0
  -25.9647   -0.6606   27.9164 C   0  0  0  0  0  0  0  0  0  0  0  0
  -27.9820   -1.6112   30.1028 N   0  0  0  0  0  0  0  0  0  0  0  0
  -23.5351    2.1704   27.5550 C   0  0  0  0  0  0  0  0  0  0  0  0
  -22.4638    1.6493   27.0986 N   0  0  0  0  0  0  0  0  0  0  0  0
  -23.6467    3.4605   27.5429 O   0  0  0  0  0  0  0  0  0  0  0  0
  -29.2186   -0.3918   28.6931 O   0  0  0  0  0  0  0  0  0  0  0  0
  -28.5765   -2.4802   30.4618 C   0  0  0  0  0  0  0  0  0  0  0  0
  -29.3234   -2.3557   31.6561 C   0  0  0  0  0  0  0  0  0  0  0  0
  -30.0592   -3.5004   32.1131 C   0  0  0  0  0  0  0  0  0  0  0  0
  -29.9978   -4.7185   31.4374 C   0  0  0  0  0  0  0  0  0  0  0  0
  -29.2472   -4.8356   30.2696 C   0  0  0  0  0  0  0  0  0  0  0  0
  -28.5192   -3.7938   29.8825 C   0  0  0  0  0  0  0  0  0  0  0  0
  -30.7596   -5.9135   31.9086 C   0  0  0  0  0  0  0  0  0  0  0  0
  -32.1478   -5.8147   31.7328 C   0  0  0  0  0  0  0  0  0  0  0  0
  -32.8330   -6.8856   32.0594 C   0  0  0  0  0  0  0  0  0  0  0  0
  -30.1232   -6.9883   32.4340 C   0  0  0  0  0  0  0  0  0  0  0  0
  -30.8313   -8.1060   32.8432 C   0  0  0  0  0  0  0  0  0  0  0  0
  -32.2206   -8.0673   32.6498 C   0  0  0  0  0  0  0  0  0  0  0  0
  1  2  1  0
  1  8  1  0
  5  9  1  0
  9 10  2  0
  9 11  1  0
  1 12  2  0
  8 13  1  0
 16 19  1  0
  2  3  2  0
  3  4  1  0
  4  5  2  0
  5  6  1  0
  6  7  2  0
  7  2  1  0
 13 14  2  0
 14 15  1  0
 15 16  2  0
 16 17  1  0
 17 18  2  0
 18 13  1  0
 19 20  2  0
 20 21  1  0
 21 24  2  0
 24 23  1  0
 23 22  2  0
 22 19  1  0
M  END

$$$$
