No_964-gen_results/8p0m/2024-11-27-11-27-31/
     RDKit          3D

 16 17  0  0  0  0  0  0  0  0999 V2000
  -28.0162   -0.8135   28.8779 C   0  0  0  0  0  0  0  0  0  0  0  0
  -28.4690   -0.7850   29.8287 C   0  0  0  0  0  0  0  0  0  0  0  0
  -26.5455   -0.8762   28.8500 C   0  0  0  0  0  0  0  0  0  0  0  0
  -25.8974   -0.8267   29.8894 C   0  0  0  0  0  0  0  0  0  0  0  0
  -27.9129   -0.8385   31.1942 C   0  0  0  0  0  0  0  0  0  0  0  0
  -26.5519   -0.8324   31.1775 C   0  0  0  0  0  0  0  0  0  0  0  0
  -30.2866   -0.7926   29.9260 Cl  0  0  0  0  0  0  0  0  0  0  0  0
  -24.3993   -0.7760   29.7076 C   0  0  0  0  0  0  0  0  0  0  0  0
  -23.7352    0.4896   30.0888 C   0  0  0  0  0  0  0  0  0  0  0  0
  -22.4166    0.6977   29.6403 C   0  0  0  0  0  0  0  0  0  0  0  0
  -21.7432   -0.3573   28.9954 C   0  0  0  0  0  0  0  0  0  0  0  0
  -20.5209   -0.0144   28.6013 F   0  0  0  0  0  0  0  0  0  0  0  0
  -23.7436   -1.3181   28.5677 C   0  0  0  0  0  0  0  0  0  0  0  0
  -22.4124   -1.3477   28.4216 C   0  0  0  0  0  0  0  0  0  0  0  0
  -23.8145   -1.6905   31.0119 C   0  0  0  0  0  0  0  0  0  0  0  0
  -24.3808    1.4020   30.7434 F   0  0  0  0  0  0  0  0  0  0  0  0
  2  7  1  0
  4  8  1  0
  8  9  1  0
 10 11  1  0
 11 12  1  0
  8 13  1  0
 11 14  1  0
  8 15  1  0
  9 16  1  0
  9 10  1  0
 14 13  1  0
  1  2  2  0
  2  5  1  0
  5  6  2  0
  6  4  1  0
  4  3  2  0
  3  1  1  0
M  END

$$$$
