No_971-gen_results/8p0m/2024-11-27-11-27-31/
     RDKit          3D

 13 14  0  0  0  0  0  0  0  0999 V2000
  -28.0162   -0.8135   28.8779 C   0  0  0  0  0  0  0  0  0  0  0  0
  -27.0636   -0.1189   28.6079 C   0  0  0  0  0  0  0  0  0  0  0  0
  -25.8837   -0.5253   28.7834 F   0  0  0  0  0  0  0  0  0  0  0  0
  -27.1010    1.1562   27.8909 C   0  0  0  0  0  0  0  0  0  0  0  0
  -29.3448   -0.1953   28.7972 C   0  0  0  0  0  0  0  0  0  0  0  0
  -25.9262    1.8665   27.4759 C   0  0  0  0  0  0  0  0  0  0  0  0
  -29.4507    0.9529   28.0585 C   0  0  0  0  0  0  0  0  0  0  0  0
  -28.3294    1.7003   27.6472 C   0  0  0  0  0  0  0  0  0  0  0  0
  -24.8120    1.1833   27.0461 C   0  0  0  0  0  0  0  0  0  0  0  0
  -23.6820    1.9359   26.5598 C   0  0  0  0  0  0  0  0  0  0  0  0
  -23.7859    3.3035   26.4855 C   0  0  0  0  0  0  0  0  0  0  0  0
  -25.7111    3.2770   27.2183 C   0  0  0  0  0  0  0  0  0  0  0  0
  -24.7679    3.9894   26.8187 C   0  0  0  0  0  0  0  0  0  0  0  0
  2  3  1  0
  4  6  1  0
  6  9  2  0
  9 10  1  0
 10 11  2  0
 11 13  1  0
 13 12  2  0
 12  6  1  0
  1  2  2  0
  2  4  1  0
  4  8  2  0
  8  7  1  0
  7  5  2  0
  5  1  1  0
M  END

$$$$
