No_942-gen_results/8p0m/2024-11-27-11-27-31/
     RDKit          3D

 21 23  0  0  0  0  0  0  0  0999 V2000
  -28.0162   -0.8135   28.8779 C   0  0  0  0  0  0  0  0  0  0  0  0
  -28.4690   -0.7850   29.8287 C   0  0  0  0  0  0  0  0  0  0  0  0
  -26.5455   -0.8762   28.8500 C   0  0  0  0  0  0  0  0  0  0  0  0
  -25.8041   -1.0324   30.0571 C   0  0  0  0  0  0  0  0  0  0  0  0
  -26.5373   -1.0386   31.2171 C   0  0  0  0  0  0  0  0  0  0  0  0
  -27.8843   -0.9532   31.1862 C   0  0  0  0  0  0  0  0  0  0  0  0
  -24.3655   -1.1134   30.0483 C   0  0  0  0  0  0  0  0  0  0  0  0
  -23.7447   -1.3690   30.8125 C   0  0  0  0  0  0  0  0  0  0  0  0
  -22.2072   -1.2504   30.8577 C   0  0  0  0  0  0  0  0  0  0  0  0
  -21.6856   -0.8191   29.6527 C   0  0  0  0  0  0  0  0  0  0  0  0
  -23.7345   -0.6112   28.7797 C   0  0  0  0  0  0  0  0  0  0  0  0
  -22.4343   -0.4609   28.6549 C   0  0  0  0  0  0  0  0  0  0  0  0
  -30.0596   -0.6697   29.9158 C   0  0  0  0  0  0  0  0  0  0  0  0
  -30.5098   -0.1904   28.9838 O   0  0  0  0  0  0  0  0  0  0  0  0
  -30.7351   -1.0516   30.9387 O   0  0  0  0  0  0  0  0  0  0  0  0
  -25.8503   -0.7855   27.6723 N   0  0  0  0  0  0  0  0  0  0  0  0
  -24.6557   -0.4377   27.6451 C   0  0  0  0  0  0  0  0  0  0  0  0
  -24.2946    0.4142   26.7394 O   0  0  0  0  0  0  0  0  0  0  0  0
  -30.7026    0.9035   28.6004 C   0  0  0  0  0  0  0  0  0  0  0  0
  -30.9839    1.8370   29.1740 C   0  0  0  0  0  0  0  0  0  0  0  0
  -31.0803    2.9406   29.2398 C   0  0  0  0  0  0  0  0  0  0  0  0
  4  7  1  0
  2 13  1  0
 13 14  1  0
 13 15  2  0
  3 16  1  0
 11 17  1  0
 16 17  1  0
 17 18  2  0
 14 19  1  0
 19 20  2  3
 20 21  1  0
  7  8  2  0
  8  9  1  0
  9 10  2  0
 10 12  1  0
 12 11  2  0
 11  7  1  0
  1  2  2  0
  2  6  1  0
  6  5  2  0
  5  4  1  0
  4  3  2  0
  3  1  1  0
M  END

$$$$
