No_901-gen_results/8p0m/2024-11-27-11-27-31/
     RDKit          3D

 35 38  0  0  0  0  0  0  0  0999 V2000
  -28.0162   -0.8135   28.8779 C   0  0  0  0  0  0  0  0  0  0  0  0
  -27.0636   -0.1189   28.6079 C   0  0  0  0  0  0  0  0  0  0  0  0
  -27.0010    0.6913   27.4910 C   0  0  0  0  0  0  0  0  0  0  0  0
  -28.1373    0.7363   26.6350 C   0  0  0  0  0  0  0  0  0  0  0  0
  -29.2360    0.0765   27.0690 C   0  0  0  0  0  0  0  0  0  0  0  0
  -29.2177   -0.6429   28.1747 C   0  0  0  0  0  0  0  0  0  0  0  0
  -30.4152    0.1590   26.1819 C   0  0  0  0  0  0  0  0  0  0  0  0
  -31.3727   -0.5052   26.4854 N   0  0  0  0  0  0  0  0  0  0  0  0
  -30.5283    1.1022   25.3699 O   0  0  0  0  0  0  0  0  0  0  0  0
  -31.4534   -1.5583   27.4132 C   0  0  0  0  0  0  0  0  0  0  0  0
  -30.3533   -1.4933   28.3916 N   0  0  0  0  0  0  0  0  0  0  0  0
  -32.4653   -2.2801   27.7064 N   0  0  0  0  0  0  0  0  0  0  0  0
  -32.5464   -0.4805   25.4864 C   0  0  0  0  0  0  0  0  0  0  0  0
  -32.5119   -3.4298   27.8812 C   0  0  0  0  0  0  0  0  0  0  0  0
  -31.5250   -4.0845   28.5431 C   0  0  0  0  0  0  0  0  0  0  0  0
  -31.8548   -5.0476   29.4374 C   0  0  0  0  0  0  0  0  0  0  0  0
  -32.7761   -5.9133   29.1370 C   0  0  0  0  0  0  0  0  0  0  0  0
  -33.8360   -5.4787   28.2643 C   0  0  0  0  0  0  0  0  0  0  0  0
  -33.6989   -4.2241   27.7811 C   0  0  0  0  0  0  0  0  0  0  0  0
  -28.0772   -1.6261   30.1621 C   0  0  0  0  0  0  0  0  0  0  0  0
  -27.2010   -2.4276   30.3329 O   0  0  0  0  0  0  0  0  0  0  0  0
  -29.2284   -1.6868   30.7943 O   0  0  0  0  0  0  0  0  0  0  0  0
  -32.9745   -7.2358   29.8374 C   0  0  0  0  0  0  0  0  0  0  0  0
  -33.1960   -8.1850   29.4192 C   0  0  0  0  0  0  0  0  0  0  0  0
  -33.2338   -9.5017   30.1314 C   0  0  0  0  0  0  0  0  0  0  0  0
  -32.8392   -9.4944   31.4709 C   0  0  0  0  0  0  0  0  0  0  0  0
  -32.4710   -8.3120   32.0405 C   0  0  0  0  0  0  0  0  0  0  0  0
  -32.4246   -7.1527   31.2990 C   0  0  0  0  0  0  0  0  0  0  0  0
  -34.7598   -3.7606   26.8362 C   0  0  0  0  0  0  0  0  0  0  0  0
  -35.6120   -2.5845   27.1522 Cl  0  0  0  0  0  0  0  0  0  0  0  0
  -35.2944   -5.0068   26.1716 C   0  0  0  0  0  0  0  0  0  0  0  0
  -29.2878   -2.6112   31.8699 C   0  0  0  0  0  0  0  0  0  0  0  0
  -29.8310   -3.8556   31.4113 C   0  0  0  0  0  0  0  0  0  0  0  0
  -30.0156   -4.6028   32.5280 C   0  0  0  0  0  0  0  0  0  0  0  0
  -29.8070   -3.9957   33.6989 C   0  0  0  0  0  0  0  0  0  0  0  0
  5  7  1  0
  7  8  1  0
  7  9  2  0
  8 10  1  0
  6 11  1  0
 10 11  1  0
 10 12  1  0
  8 13  1  0
 12 14  1  0
  1 20  1  0
 20 21  2  0
 20 22  1  0
 17 23  1  0
 19 29  1  0
 29 30  1  0
 29 31  1  0
 22 32  1  0
 32 33  1  0
 33 34  3  0
 34 35  1  0
  1  2  2  0
  2  3  1  0
  3  4  2  0
  4  5  1  0
  5  6  2  0
  6  1  1  0
 23 24  2  0
 24 25  1  0
 25 26  2  0
 26 27  1  0
 27 28  2  0
 28 23  1  0
 14 15  2  0
 15 16  1  0
 16 17  2  0
 17 18  1  0
 18 19  2  0
 19 14  1  0
M  END

$$$$
