No_947-gen_results/8p0m/2024-11-27-11-27-31/
     RDKit          3D

 23 24  0  0  0  0  0  0  0  0999 V2000
  -28.0162   -0.8135   28.8779 C   0  0  0  0  0  0  0  0  0  0  0  0
  -27.0636   -0.1189   28.6079 C   0  0  0  0  0  0  0  0  0  0  0  0
  -26.9287    1.1713   29.0083 C   0  0  0  0  0  0  0  0  0  0  0  0
  -25.7702    2.0341   28.6884 C   0  0  0  0  0  0  0  0  0  0  0  0
  -24.7141    1.4431   27.9188 C   0  0  0  0  0  0  0  0  0  0  0  0
  -24.8590    0.0783   27.5836 C   0  0  0  0  0  0  0  0  0  0  0  0
  -25.9647   -0.6606   27.9164 C   0  0  0  0  0  0  0  0  0  0  0  0
  -29.2431   -0.1966   29.1279 C   0  0  0  0  0  0  0  0  0  0  0  0
  -29.2678    1.1397   29.5271 C   0  0  0  0  0  0  0  0  0  0  0  0
  -28.1278    1.9036   29.3342 C   0  0  0  0  0  0  0  0  0  0  0  0
  -23.4473    2.1000   27.6651 C   0  0  0  0  0  0  0  0  0  0  0  0
  -22.5126    1.7458   27.1576 O   0  0  0  0  0  0  0  0  0  0  0  0
  -23.5454    3.4579   27.9952 O   0  0  0  0  0  0  0  0  0  0  0  0
  -30.5044    1.7650   30.0547 C   0  0  0  0  0  0  0  0  0  0  0  0
  -30.6015    2.1651   31.1212 O   0  0  0  0  0  0  0  0  0  0  0  0
  -31.3348    2.0772   29.0695 O   0  0  0  0  0  0  0  0  0  0  0  0
  -30.3163   -0.9649   29.4112 O   0  0  0  0  0  0  0  0  0  0  0  0
  -30.0793   -1.9439   30.3142 C   0  0  0  0  0  0  0  0  0  0  0  0
  -30.8526   -3.1871   30.0002 C   0  0  0  0  0  0  0  0  0  0  0  0
  -30.2018   -4.2460   30.0789 O   0  0  0  0  0  0  0  0  0  0  0  0
  -31.9937   -3.1466   29.5976 O   0  0  0  0  0  0  0  0  0  0  0  0
  -28.8370   -2.1900   30.9737 C   0  0  0  0  0  0  0  0  0  0  0  0
  -29.0006   -1.9223   32.2988 O   0  0  0  0  0  0  0  0  0  0  0  0
  5 11  1  0
 11 12  2  0
 11 13  1  0
  9 14  1  0
 14 15  2  0
 14 16  1  0
  8 17  1  0
 17 18  1  0
 18 19  1  0
 19 20  2  0
 19 21  1  0
 18 22  1  0
 22 23  2  0
  3  4  1  0
  4  5  2  0
  5  6  1  0
  6  7  2  0
  7  2  1  0
  1  2  2  0
  2  3  1  0
  3 10  2  0
 10  9  1  0
  9  8  2  0
  8  1  1  0
M  END

$$$$
