No_906-gen_results/8p0m/2024-11-27-11-27-31/
     RDKit          3D

 16 17  0  0  0  0  0  0  0  0999 V2000
  -28.0162   -0.8135   28.8779 C   0  0  0  0  0  0  0  0  0  0  0  0
  -28.4690   -0.7850   29.8287 C   0  0  0  0  0  0  0  0  0  0  0  0
  -27.0871    0.2903   28.6377 C   0  0  0  0  0  0  0  0  0  0  0  0
  -26.8317    1.2487   29.5869 C   0  0  0  0  0  0  0  0  0  0  0  0
  -28.3914    0.0801   31.0065 C   0  0  0  0  0  0  0  0  0  0  0  0
  -27.4940    1.1521   30.7841 C   0  0  0  0  0  0  0  0  0  0  0  0
  -26.3109    0.3917   27.3640 C   0  0  0  0  0  0  0  0  0  0  0  0
  -26.7768    0.8323   26.3762 N   0  0  0  0  0  0  0  0  0  0  0  0
  -24.9875    0.3844   27.4904 O   0  0  0  0  0  0  0  0  0  0  0  0
  -26.0849    0.8719   25.0713 C   0  0  0  0  0  0  0  0  0  0  0  0
  -28.2241    0.8998   26.1025 C   0  0  0  0  0  0  0  0  0  0  0  0
  -28.6760    2.0527   25.9600 C   0  0  0  0  0  0  0  0  0  0  0  0
  -30.1024    2.2865   25.8190 C   0  0  0  0  0  0  0  0  0  0  0  0
  -30.8880    1.2789   25.6305 C   0  0  0  0  0  0  0  0  0  0  0  0
  -30.3581   -0.0425   25.6632 C   0  0  0  0  0  0  0  0  0  0  0  0
  -29.0309   -0.1972   25.9366 C   0  0  0  0  0  0  0  0  0  0  0  0
  3  7  1  0
  7  8  1  0
  7  9  2  0
  8 10  1  0
  8 11  1  0
 11 12  2  0
 12 13  1  0
 13 14  2  0
 14 15  1  0
 15 16  2  0
 16 11  1  0
  1  2  2  0
  2  5  1  0
  5  6  2  0
  6  4  1  0
  4  3  2  0
  3  1  1  0
M  END

$$$$
