No_995-gen_results/8p0m/2024-11-27-11-27-31/
     RDKit          3D

 15 16  0  0  0  0  0  0  0  0999 V2000
  -28.0162   -0.8135   28.8779 C   0  0  0  0  0  0  0  0  0  0  0  0
  -28.4690   -0.7850   29.8287 C   0  0  0  0  0  0  0  0  0  0  0  0
  -27.1356    0.2359   28.5352 C   0  0  0  0  0  0  0  0  0  0  0  0
  -26.8050    1.0509   29.2763 C   0  0  0  0  0  0  0  0  0  0  0  0
  -27.3158    1.1492   30.6054 C   0  0  0  0  0  0  0  0  0  0  0  0
  -28.1939    0.1246   30.9393 C   0  0  0  0  0  0  0  0  0  0  0  0
  -26.5244    0.0105   27.1534 C   0  0  0  0  0  0  0  0  0  0  0  0
  -25.1110    0.0834   27.0838 C   0  0  0  0  0  0  0  0  0  0  0  0
  -27.0311    1.0489   26.1411 C   0  0  0  0  0  0  0  0  0  0  0  0
  -24.3923   -0.4492   28.1993 C   0  0  0  0  0  0  0  0  0  0  0  0
  -23.0842    0.0135   28.5485 C   0  0  0  0  0  0  0  0  0  0  0  0
  -22.3258   -0.5556   29.5909 C   0  0  0  0  0  0  0  0  0  0  0  0
  -22.9505   -1.5406   30.3557 C   0  0  0  0  0  0  0  0  0  0  0  0
  -24.2657   -1.8916   30.1765 C   0  0  0  0  0  0  0  0  0  0  0  0
  -24.9780   -1.3597   29.0940 C   0  0  0  0  0  0  0  0  0  0  0  0
  3  7  1  0
  7  8  1  0
  7  9  1  0
  8 10  1  0
  1  2  2  0
  2  6  1  0
  6  5  2  0
  5  4  1  0
  4  3  2  0
  3  1  1  0
 10 11  2  0
 11 12  1  0
 12 13  2  0
 13 14  1  0
 14 15  2  0
 15 10  1  0
M  END

$$$$
